ATP-ACQ-0001
     RDKit          3D

 60 62  0  0  0  0  0  0  0  0999 V2000
  197.0565  185.5114  159.7188 S   0  0  0  0  0  0  0  0  0  0  0  0
  195.3677  185.0545  159.8569 C   0  0  0  0  0  0  0  0  0  0  0  0
  195.1177  183.8031  159.4738 N   0  0  0  0  0  0  0  0  0  0  0  0
  196.2717  183.1359  159.0632 C   0  0  0  0  0  0  0  0  0  0  0  0
  197.4062  183.9057  159.1642 C   0  0  0  0  0  0  0  0  0  0  0  0
  196.1835  181.7389  158.5373 C   0  0  1  0  0  0  0  0  0  0  0  0
  195.9933  181.7409  157.0760 N   0  0  1  0  0  0  0  0  0  0  0  0
  197.1678  182.1842  156.2975 C   0  0  1  0  0  0  0  0  0  0  0  0
  197.1558  181.6184  154.8833 C   0  0  0  0  0  0  0  0  0  0  0  0
  197.4963  180.2648  154.5907 C   0  0  0  0  0  0  0  0  0  0  0  0
  197.3991  179.8192  153.2521 C   0  0  0  0  0  0  0  0  0  0  0  0
  197.0489  180.7013  152.2133 C   0  0  0  0  0  0  0  0  0  0  0  0
  197.0132  180.2568  150.9316 F   0  0  0  0  0  0  0  0  0  0  0  0
  196.7449  182.0397  152.5020 C   0  0  0  0  0  0  0  0  0  0  0  0
  196.7835  182.4897  153.8328 C   0  0  0  0  0  0  0  0  0  0  0  0
  197.9459  179.2639  155.6693 C   0  0  1  0  0  0  0  0  0  0  0  0
  199.4262  179.0545  155.7146 N   0  0  1  0  0  0  0  0  0  0  0  0
  199.8796  178.4890  157.0175 C   0  0  1  0  0  0  0  0  0  0  0  0
  201.4002  178.5668  157.2400 C   0  0  2  0  0  0  0  0  0  0  0  0
  199.9345  178.2635  154.5620 C   0  0  2  0  0  0  0  0  0  0  0  0
  194.3159  185.9878  160.3475 C   0  0  1  0  0  0  0  0  0  0  0  0
  194.5599  186.2362  161.7269 O   0  0  0  0  0  0  0  0  0  0  0  0
  193.7166  187.1335  162.3199 C   0  0  0  0  0  0  0  0  0  0  0  0
  192.6935  186.6927  163.1904 C   0  0  0  0  0  0  0  0  0  0  0  0
  191.8851  187.6378  163.8581 C   0  0  0  0  0  0  0  0  0  0  0  0
  192.0528  189.0235  163.6531 C   0  0  0  0  0  0  0  0  0  0  0  0
  191.2413  189.8994  164.3259 O   0  0  0  0  0  0  0  0  0  0  0  0
  191.3965  191.2913  164.0759 C   0  0  2  0  0  0  0  0  0  0  0  0
  193.0751  189.4509  162.7597 C   0  0  0  0  0  0  0  0  0  0  0  0
  193.8983  188.5059  162.1302 C   0  0  0  0  0  0  0  0  0  0  0  0
  195.8351  180.7576  156.8909 H   0  0  0  0  0  0  0  0  0  0  0  0
  198.4163  183.6377  158.9041 H   0  0  0  0  0  0  0  0  0  0  0  0
  197.0808  181.1697  158.7768 H   0  0  0  0  0  0  0  0  0  0  0  0
  195.3647  181.1898  158.9987 H   0  0  0  0  0  0  0  0  0  0  0  0
  197.1682  183.2793  156.2695 H   0  0  0  0  0  0  0  0  0  0  0  0
  198.1079  181.8943  156.7720 H   0  0  0  0  0  0  0  0  0  0  0  0
  197.6036  178.7922  152.9934 H   0  0  0  0  0  0  0  0  0  0  0  0
  196.4545  182.7171  151.7085 H   0  0  0  0  0  0  0  0  0  0  0  0
  196.5136  183.5137  154.0403 H   0  0  0  0  0  0  0  0  0  0  0  0
  197.6076  179.6185  156.6388 H   0  0  0  0  0  0  0  0  0  0  0  0
  197.4335  178.3096  155.5287 H   0  0  0  0  0  0  0  0  0  0  0  0
  199.4079  179.0417  157.8285 H   0  0  0  0  0  0  0  0  0  0  0  0
  199.5502  177.4533  157.1081 H   0  0  0  0  0  0  0  0  0  0  0  0
  201.6625  178.1337  158.2088 H   0  0  0  0  0  0  0  0  0  0  0  0
  201.7395  179.6021  157.2393 H   0  0  0  0  0  0  0  0  0  0  0  0
  201.9663  178.0162  156.4880 H   0  0  0  0  0  0  0  0  0  0  0  0
  199.4762  177.2705  154.5681 H   0  0  0  0  0  0  0  0  0  0  0  0
  201.0198  178.1363  154.5842 H   0  0  0  0  0  0  0  0  0  0  0  0
  199.7098  178.7439  153.6076 H   0  0  0  0  0  0  0  0  0  0  0  0
  194.3478  186.9057  159.7625 H   0  0  0  0  0  0  0  0  0  0  0  0
  193.3318  185.5395  160.2323 H   0  0  0  0  0  0  0  0  0  0  0  0
  192.5523  185.6395  163.3696 H   0  0  0  0  0  0  0  0  0  0  0  0
  191.1450  187.3101  164.5584 H   0  0  0  0  0  0  0  0  0  0  0  0
  190.7046  191.8925  164.6615 H   0  0  0  0  0  0  0  0  0  0  0  0
  191.2101  191.5093  163.0283 H   0  0  0  0  0  0  0  0  0  0  0  0
  192.3919  191.6141  164.3595 H   0  0  0  0  0  0  0  0  0  0  0  0
  193.2746  190.5031  162.5329 H   0  0  0  0  0  0  0  0  0  0  0  0
  194.6676  188.8431  161.4421 H   0  0  0  0  0  0  0  0  0  0  0  0
  199.8268  179.9766  155.6639 H   0  0  0  0  0  0  0  0  0  0  0  0
  195.1609  182.2429  156.7904 H   0  0  0  0  0  0  0  0  0  0  0  0
  1  2  1  0
  1  5  1  0
  2  3  2  0
  2 21  1  0
  3  4  1  0
  4  5  2  0
  4  6  1  0
  5 32  1  0
  6  7  1  0
  6 33  1  6
  6 34  1  0
  7  8  1  0
  7 31  1  6
  7 60  1  0
  8  9  1  0
  8 35  1  6
  8 36  1  0
  9 10  2  0
  9 15  1  0
 10 11  1  0
 10 16  1  0
 11 12  2  0
 11 37  1  0
 12 13  1  0
 12 14  1  0
 14 15  2  0
 14 38  1  0
 15 39  1  0
 16 17  1  0
 16 40  1  1
 16 41  1  0
 17 18  1  0
 17 20  1  0
 17 59  1  6
 18 19  1  0
 18 42  1  1
 18 43  1  0
 19 44  1  1
 19 45  1  0
 19 46  1  0
 20 47  1  6
 20 48  1  0
 20 49  1  0
 21 22  1  0
 21 50  1  6
 21 51  1  0
 22 23  1  0
 23 24  1  0
 23 30  2  0
 24 25  2  0
 24 52  1  0
 25 26  1  0
 25 53  1  0
 26 27  1  0
 26 29  2  0
 27 28  1  0
 28 54  1  1
 28 55  1  0
 28 56  1  0
 29 30  1  0
 29 57  1  0
 30 58  1  0
M  CHG  2   7   1  17   1
M  END
>  <s_epik_cmdline>  (1) 
J2VwaWtfcHl0aG9uJywgJy1waCcsICc3LjAwMDAwMCcsICctcGh0JywgJzIuMDAwMDAwJywgJy1tcycsICcxNicsICctdG4nLCAnOCcsICctbWEnLCAnMjAwJywgJy1pbWFlJywgJzxpbmZpbGUubWFlPicsICctb21hZScsICc8b3V0ZmlsZS5tYWU+Jw==

>  <s_epik_input>  (1) 
W0NIM11PYyhbY0hdW2NIXTEpW2NIXVtjSF1jMU9bQ0gyXWMyc1tjSF1jKG4yKVtDSDJdW05IXVtDSDJdYzNjKFtjSF1jKEYpW2NIXVtjSF0zKVtDSDJdTihbQ0gzXSlbQ0gyXVtDSDNd

>  <s_i_glide_gridfile>  (1) 
ATP-Grid

>  <s_lp_Force_Field>  (1) 
OPLS_2005

>  <s_lp_Variant>  (1) 
m_270004bbb____24792670____7548988-1

>  <s_lp_label>  (1) 
1379_sdstereoexpander_1_neutralizer_1_epik_1_stereoizer_1

>  <s_m_source_file>  (1) 
ATP-VSW-LIGPREP-002-in.maegz

>  <s_sd_BIOSOLVEIT.INFINISEE\_QUERY\_NAME>  (1) 
Ref-Lig

>  <s_sd_BIOSOLVEIT.INFINISEE\_QUERY\_SMILES>  (1) 
S(c1nc2c(cc1C[NH2+]Cc3ccc(cc3)C[NH+](C)C)cccc2)Cc4ccccc4

>  <s_sd_BIOSOLVEIT.INFINISEE\_REACTION\_NAME>  (1) 
m_270004bbb

>  <s_sd_BIOSOLVEIT.INFINISEE\_REAGENT1\_SMILES>  (1) 
[R1*]NCc1c(cc(F)cc1)CN(CC)C

>  <s_sd_BIOSOLVEIT.INFINISEE\_REAGENT2\_SMILES>  (1) 
[R1*]CC=1N=C(SC1)COc2ccc(OC)cc2

>  <s_sd_BIOSOLVEIT.INFINISEE\_SPACE>  (1) 
REALSpace_44bn_2023-08

>  <s_vsw_compound_code>  (1) 
44098

>  <s_vsw_variant>  (1) 
44098-1

>  <r_epik_Charging_Adjusted_Penalty>  (1) 
0.47514642973629001

>  <r_epik_Ionization_Penalty>  (1) 
0.23899999999999999

>  <r_epik_Ionization_Penalty_Charging>  (1) 
0.23899999999999999

>  <r_epik_Ionization_Penalty_Neutral>  (1) 
0

>  <r_epik_State_Penalty>  (1) 
0.23619999999999999

>  <r_i_docking_score>  (1) 
-6.7289102870080901

>  <r_i_glide_ecoul>  (1) 
-18.263252258300799

>  <r_i_glide_eff_state_penalty>  (1) 
0.23619999999999999

>  <r_i_glide_einternal>  (1) 
12.567302703857401

>  <r_i_glide_emodel>  (1) 
-91.086170915954398

>  <r_i_glide_energy>  (1) 
-58.038726806640597

>  <r_i_glide_erotb>  (1) 
0.96117231633538802

>  <r_i_glide_esite>  (1) 
-0.153333407566351

>  <r_i_glide_evdw>  (1) 
-39.775474548339801

>  <r_i_glide_gscore>  (1) 
-6.9651102870080903

>  <r_i_glide_hbond>  (1) 
-0.36320661323952602

>  <r_i_glide_ligand_efficiency>  (1) 
-0.22429700956693599

>  <r_i_glide_ligand_efficiency_ln>  (1) 
-1.5288817345580701

>  <r_i_glide_ligand_efficiency_sa>  (1) 
-0.69694295832448105

>  <r_i_glide_lipo>  (1) 
-1.6274739775753

>  <r_i_glide_metal>  (1) 
-0

>  <r_i_glide_rewards>  (1) 
-1.0540070388001901

>  <r_lp_Energy>  (1) 
23.150915999999999

>  <r_lp_tautomer_probability>  (1) 
1

>  <r_qp_ACxDN^.5/SA>  (1) 
0.0085348000000000004

>  <r_qp_CIQPlogS>  (1) 
-4.2679999999999998

>  <r_qp_EA(eV)>  (1) 
0.81799999999999995

>  <r_qp_FISA>  (1) 
18.178000000000001

>  <r_qp_FOSA>  (1) 
371.44499999999999

>  <r_qp_IP(eV)>  (1) 
8.6750000000000007

>  <r_qp_Jm>  (1) 
0.0071453683930328901

>  <r_qp_PISA>  (1) 
283.39999999999998

>  <r_qp_PSA>  (1) 
45.182000000000002

>  <r_qp_PercentHumanOralAbsorption>  (1) 
100

>  <r_qp_QPPCaco>  (1) 
414.303

>  <r_qp_QPPMDCK>  (1) 
713.90499999999997

>  <r_qp_QPlogBB>  (1) 
0.71999999999999997

>  <r_qp_QPlogHERG>  (1) 
-7.774

>  <r_qp_QPlogKhsa>  (1) 
0.60699999999999998

>  <r_qp_QPlogKp>  (1) 
-3.9249999999999998

>  <r_qp_QPlogPC16>  (1) 
13.486000000000001

>  <r_qp_QPlogPo/w>  (1) 
4.7089999999999996

>  <r_qp_QPlogPoct>  (1) 
19.518000000000001

>  <r_qp_QPlogPw>  (1) 
9.0749999999999993

>  <r_qp_QPlogS>  (1) 
-3.8540000000000001

>  <r_qp_QPpolrz>  (1) 
44.761000000000003

>  <r_qp_SASA>  (1) 
761.58900000000006

>  <r_qp_SAamideO>  (1) 
0

>  <r_qp_SAfluorine>  (1) 
46.972000000000001

>  <r_qp_WPSA>  (1) 
88.566000000000003

>  <r_qp_accptHB>  (1) 
6.5

>  <r_qp_dip^2/V>  (1) 
0.0054665

>  <r_qp_dipole>  (1) 
2.7480000000000002

>  <r_qp_donorHB>  (1) 
1

>  <r_qp_glob>  (1) 
0.78752089999999997

>  <r_qp_mol_MW>  (1) 
429.55099999999999

>  <r_qp_volume>  (1) 
1381.105

>  <r_sd_BIOSOLVEIT.INFINISEE\_FTREES\_SIMILARITY>  (1) 
0.90900000000000003

>  <r_sd_BIOSOLVEIT.LOGP>  (1) 
2.1680000000000001

>  <r_sd_BIOSOLVEIT.MOLECULAR\_WEIGHT>  (1) 
431.572

>  <r_sd_BIOSOLVEIT.TPSA>  (1) 
52.399999999999999

>  <i_epik_Tot_Q>  (1) 
2

>  <i_epik_Tot_abs_Q>  (1) 
2

>  <i_f3d_flags>  (1) 
0

>  <i_i_glide_confnum>  (1) 
8

>  <i_i_glide_lignum>  (1) 
481

>  <i_i_glide_posenum>  (1) 
7

>  <i_i_glide_rotatable_bonds>  (1) 
11

>  <i_lp_mmshare_version>  (1) 
65135

>  <i_m_ct_format>  (1) 
2

>  <i_m_source_file_index>  (1) 
1379

>  <i_qp_#NandO>  (1) 
5

>  <i_qp_#acid>  (1) 
0

>  <i_qp_#amide>  (1) 
0

>  <i_qp_#amidine>  (1) 
0

>  <i_qp_#amine>  (1) 
2

>  <i_qp_#in34>  (1) 
0

>  <i_qp_#in56>  (1) 
17

>  <i_qp_#metab>  (1) 
9

>  <i_qp_#nonHatm>  (1) 
30

>  <i_qp_#noncon>  (1) 
0

>  <i_qp_#ringatoms>  (1) 
17

>  <i_qp_#rotor>  (1) 
11

>  <i_qp_#rtvFG>  (1) 
0

>  <i_qp_#stars>  (1) 
1

>  <i_qp_CNS>  (1) 
2

>  <i_qp_HumanOralAbsorption>  (1) 
3

>  <i_qp_RuleOfFive>  (1) 
0

>  <i_qp_RuleOfThree>  (1) 
1

>  <i_sd_BIOSOLVEIT.INFINISEE\_REAGENT1\_NAME>  (1) 
24792670

>  <i_sd_BIOSOLVEIT.INFINISEE\_REAGENT2\_NAME>  (1) 
7548988

>  <i_sd_BIOSOLVEIT.INFINISEE\_RESULT\_RANK>  (1) 
51332

>  <i_sd_version>  (1) 
0

>  <b_lp_Chiralities_Consistent>  (1) 
1

>  <b_sd_chiral_flag>  (1) 
0

>  <acquisition_id>  (1) 
ATP-ACQ-0001

>  <canonical_id>  (1) 
ATP-HTVS-66618B00A972

>  <compound_code>  (1) 
44098

>  <title>  (1) 
m_270004bbb____24792670____7548988

>  <variant>  (1) 
44098-1

>  <selection_arm>  (1) 
exploitation

>  <priority>  (1) 
P0

>  <wave>  (1) 
1

>  <source_file>  (1) 
运行/运行/ATP-VSW/ATP-VSW-DOCK_HTVS_1-002_lib.maegz

>  <canonical_smiles>  (1) 
CC[N@@H+](C)Cc1cc(F)ccc1C[NH2+]Cc1csc(COc2ccc(OC)cc2)n1

$$$$
ATP-ACQ-0002
     RDKit          3D

 42 45  0  0  0  0  0  0  0  0999 V2000
  196.3505  179.8453  149.9388 Cl  0  0  0  0  0  0  0  0  0  0  0  0
  196.6288  180.2817  151.5882 C   0  0  0  0  0  0  0  0  0  0  0  0
  196.9450  179.2856  152.5312 C   0  0  0  0  0  0  0  0  0  0  0  0
  197.1132  179.6217  153.8893 C   0  0  0  0  0  0  0  0  0  0  0  0
  197.0439  180.9653  154.3040 C   0  0  0  0  0  0  0  0  0  0  0  0
  196.7470  181.9685  153.3468 C   0  0  0  0  0  0  0  0  0  0  0  0
  196.5249  181.6242  151.9982 C   0  0  0  0  0  0  0  0  0  0  0  0
  197.2829  181.3174  155.7720 C   0  0  1  0  0  0  0  0  0  0  0  0
  198.6978  181.6740  156.1152 N   0  0  0  0  0  0  0  0  0  0  0  0
  199.0034  182.4643  157.1801 C   0  0  0  0  0  0  0  0  0  0  0  0
  200.1576  182.7297  157.5275 O   0  0  0  0  0  0  0  0  0  0  0  0
  197.8464  182.9958  157.9782 C   0  0  0  0  0  0  0  0  0  0  0  0
  196.5405  182.9315  157.4370 C   0  0  0  0  0  0  0  0  0  0  0  0
  196.3490  182.3478  156.1917 N   0  0  0  0  0  0  0  0  0  0  0  0
  195.4481  183.4612  158.1506 C   0  0  0  0  0  0  0  0  0  0  0  0
  195.6430  184.0518  159.4104 C   0  0  0  0  0  0  0  0  0  0  0  0
  196.9361  184.1099  159.9617 C   0  0  0  0  0  0  0  0  0  0  0  0
  198.0343  183.5864  159.2487 C   0  0  0  0  0  0  0  0  0  0  0  0
  199.7911  180.9953  155.3721 C   0  0  1  0  0  0  0  0  0  0  0  0
  200.1481  179.6058  155.8959 C   0  0  0  0  0  0  0  0  0  0  0  0
  200.8321  179.4667  157.1235 C   0  0  0  0  0  0  0  0  0  0  0  0
  201.1448  178.1869  157.6307 C   0  0  0  0  0  0  0  0  0  0  0  0
  200.7504  177.0331  156.9240 C   0  0  0  0  0  0  0  0  0  0  0  0
  200.0806  177.1661  155.6935 C   0  0  0  0  0  0  0  0  0  0  0  0
  199.8135  178.4447  155.1608 C   0  0  0  0  0  0  0  0  0  0  0  0
  197.0417  178.2590  152.2124 H   0  0  0  0  0  0  0  0  0  0  0  0
  197.3074  178.8471  154.6202 H   0  0  0  0  0  0  0  0  0  0  0  0
  196.6604  183.0043  153.6481 H   0  0  0  0  0  0  0  0  0  0  0  0
  196.2594  182.3906  151.2811 H   0  0  0  0  0  0  0  0  0  0  0  0
  197.0497  180.4295  156.3673 H   0  0  0  0  0  0  0  0  0  0  0  0
  195.3653  182.2626  155.8747 H   0  0  0  0  0  0  0  0  0  0  0  0
  194.4516  183.4158  157.7347 H   0  0  0  0  0  0  0  0  0  0  0  0
  194.7979  184.4558  159.9458 H   0  0  0  0  0  0  0  0  0  0  0  0
  197.0800  184.5546  160.9296 H   0  0  0  0  0  0  0  0  0  0  0  0
  199.0223  183.6408  159.6882 H   0  0  0  0  0  0  0  0  0  0  0  0
  199.5643  180.9333  154.3071 H   0  0  0  0  0  0  0  0  0  0  0  0
  200.6985  181.5967  155.3922 H   0  0  0  0  0  0  0  0  0  0  0  0
  201.1389  180.3406  157.6833 H   0  0  0  0  0  0  0  0  0  0  0  0
  201.6986  178.0898  158.5558 H   0  0  0  0  0  0  0  0  0  0  0  0
  200.9897  176.0518  157.3110 H   0  0  0  0  0  0  0  0  0  0  0  0
  199.7751  176.2818  155.1492 H   0  0  0  0  0  0  0  0  0  0  0  0
  199.3312  178.5186  154.1957 H   0  0  0  0  0  0  0  0  0  0  0  0
  1  2  1  0
  2  3  1  0
  2  7  2  0
  3  4  2  0
  3 26  1  0
  4  5  1  0
  4 27  1  0
  5  6  2  0
  5  8  1  0
  6  7  1  0
  6 28  1  0
  7 29  1  0
  8  9  1  0
  8 14  1  0
  8 30  1  1
  9 10  1  0
  9 19  1  0
 10 11  2  0
 10 12  1  0
 12 13  1  0
 12 18  2  0
 13 14  1  0
 13 15  2  0
 14 31  1  0
 15 16  1  0
 15 32  1  0
 16 17  2  0
 16 33  1  0
 17 18  1  0
 17 34  1  0
 18 35  1  0
 19 20  1  0
 19 36  1  6
 19 37  1  0
 20 21  2  0
 20 25  1  0
 21 22  1  0
 21 38  1  0
 22 23  2  0
 22 39  1  0
 23 24  1  0
 23 40  1  0
 24 25  2  0
 24 41  1  0
 25 42  1  0
M  END
>  <s_epik_Chemistry_Notes>  (2) 
This compound contains an acetal/aminal-like group ( X-CH(R)-Y where X, Y are N, S, or O) that may be acid/base labile, releasing an aldehyde.

>  <s_epik_cmdline>  (2) 
J2VwaWtfcHl0aG9uJywgJy1waCcsICc3LjAwMDAwMCcsICctcGh0JywgJzIuMDAwMDAwJywgJy1tcycsICcxNicsICctdG4nLCAnOCcsICctbWEnLCAnMjAwJywgJy1pbWFlJywgJzxpbmZpbGUubWFlPicsICctb21hZScsICc8b3V0ZmlsZS5tYWU+Jw==

>  <s_epik_input>  (2) 
W2NIXTFbY0hdW2NIXVtjSF1jKGMxMilbTkhdW0NAQEhdKGMoW2NIXVtjSF0zKVtjSF1bY0hdYzNDbClOKEMyPU8pW0NIMl1jNFtjSF1bY0hdW2NIXVtjSF1bY0hdNA==

>  <s_i_glide_gridfile>  (2) 
ATP-Grid

>  <s_lp_Force_Field>  (2) 
OPLS_2005

>  <s_lp_Variant>  (2) 
m_66bab____89518____10970556-1

>  <s_lp_label>  (2) 
1825_sdstereoexpander_1_neutralizer_1_epik_1_stereoizer_1

>  <s_m_source_file>  (2) 
ATP-VSW-LIGPREP-002-in.maegz

>  <s_sd_BIOSOLVEIT.INFINISEE\_QUERY\_NAME>  (2) 
Ref-Lig

>  <s_sd_BIOSOLVEIT.INFINISEE\_QUERY\_SMILES>  (2) 
S(c1nc2c(cc1C[NH2+]Cc3ccc(cc3)C[NH+](C)C)cccc2)Cc4ccccc4

>  <s_sd_BIOSOLVEIT.INFINISEE\_REACTION\_NAME>  (2) 
m_66bab

>  <s_sd_BIOSOLVEIT.INFINISEE\_REAGENT1\_SMILES>  (2) 
[R1*]N(C(=O)c1c(N[R2*])cccc1)Cc2ccccc2

>  <s_sd_BIOSOLVEIT.INFINISEE\_REAGENT2\_SMILES>  (2) 
[R1*]C1([R2*])CC(c2ccc(Cl)cc2)CCC1

>  <s_sd_BIOSOLVEIT.INFINISEE\_SPACE>  (2) 
REALSpace_44bn_2023-08

>  <s_vsw_compound_code>  (2) 
58370

>  <s_vsw_variant>  (2) 
58370-1

>  <r_epik_Charging_Adjusted_Penalty>  (2) 
0

>  <r_epik_Ionization_Penalty>  (2) 
0

>  <r_epik_Ionization_Penalty_Charging>  (2) 
0

>  <r_epik_Ionization_Penalty_Neutral>  (2) 
0

>  <r_epik_State_Penalty>  (2) 
-0

>  <r_i_docking_score>  (2) 
-4.2671466110497596

>  <r_i_glide_ecoul>  (2) 
-2.2772045135497998

>  <r_i_glide_eff_state_penalty>  (2) 
-0

>  <r_i_glide_einternal>  (2) 
2.12790727615356

>  <r_i_glide_emodel>  (2) 
-42.750448116341097

>  <r_i_glide_energy>  (2) 
-34.001861572265597

>  <r_i_glide_erotb>  (2) 
0.46946400384524201

>  <r_i_glide_esite>  (2) 
-0.16586820155439

>  <r_i_glide_evdw>  (2) 
-31.724657058715799

>  <r_i_glide_gscore>  (2) 
-4.2671466110497596

>  <r_i_glide_hbond>  (2) 
-0.16

>  <r_i_glide_ligand_efficiency>  (2) 
-0.17068586444198999

>  <r_i_glide_ligand_efficiency_ln>  (2) 
-1.0114416228837599

>  <r_i_glide_ligand_efficiency_sa>  (2) 
-0.499088494755076

>  <r_i_glide_lipo>  (2) 
-1.4521914742814399

>  <r_i_glide_metal>  (2) 
-0

>  <r_i_glide_rewards>  (2) 
-1.0307374090909101

>  <r_lp_Energy>  (2) 
28.234705999999999

>  <r_lp_tautomer_probability>  (2) 
1

>  <r_qp_ACxDN^.5/SA>  (2) 
0.0068897000000000003

>  <r_qp_CIQPlogS>  (2) 
-5.9550000000000001

>  <r_qp_EA(eV)>  (2) 
0.504

>  <r_qp_FISA>  (2) 
42.853000000000002

>  <r_qp_FOSA>  (2) 
41.268999999999998

>  <r_qp_IP(eV)>  (2) 
8.6370000000000005

>  <r_qp_Jm>  (2) 
0.35705695189570402

>  <r_qp_PISA>  (2) 
428.53300000000002

>  <r_qp_PSA>  (2) 
38.75

>  <r_qp_PercentHumanOralAbsorption>  (2) 
100

>  <r_qp_QPPCaco>  (2) 
3886.2240000000002

>  <r_qp_QPPMDCK>  (2) 
5053.7529999999997

>  <r_qp_QPlogBB>  (2) 
0.224

>  <r_qp_QPlogHERG>  (2) 
-5.8319999999999999

>  <r_qp_QPlogKhsa>  (2) 
0.626

>  <r_qp_QPlogKp>  (2) 
-0.60799999999999998

>  <r_qp_QPlogPC16>  (2) 
12.041

>  <r_qp_QPlogPo/w>  (2) 
4.6680000000000001

>  <r_qp_QPlogPoct>  (2) 
17.085000000000001

>  <r_qp_QPlogPw>  (2) 
9.3100000000000005

>  <r_qp_QPlogS>  (2) 
-5.3819999999999997

>  <r_qp_QPpolrz>  (2) 
38.679000000000002

>  <r_qp_SASA>  (2) 
580.57299999999998

>  <r_qp_SAamideO>  (2) 
0

>  <r_qp_SAfluorine>  (2) 
0

>  <r_qp_WPSA>  (2) 
67.918000000000006

>  <r_qp_accptHB>  (2) 
4

>  <r_qp_dip^2/V>  (2) 
0.027720600000000001

>  <r_qp_dipole>  (2) 
5.3949999999999996

>  <r_qp_donorHB>  (2) 
1

>  <r_qp_glob>  (2) 
0.86058659999999998

>  <r_qp_mol_MW>  (2) 
348.83100000000002

>  <r_qp_volume>  (2) 
1050.098

>  <r_sd_BIOSOLVEIT.INFINISEE\_FTREES\_SIMILARITY>  (2) 
0.90400000000000003

>  <r_sd_BIOSOLVEIT.LOGP>  (2) 
5.1067

>  <r_sd_BIOSOLVEIT.MOLECULAR\_WEIGHT>  (2) 
348.83100000000002

>  <r_sd_BIOSOLVEIT.TPSA>  (2) 
32.340000000000003

>  <i_epik_Tot_Q>  (2) 
0

>  <i_epik_Tot_abs_Q>  (2) 
0

>  <i_f3d_flags>  (2) 
0

>  <i_i_glide_confnum>  (2) 
2

>  <i_i_glide_lignum>  (2) 
643

>  <i_i_glide_posenum>  (2) 
19

>  <i_i_glide_rotatable_bonds>  (2) 
3

>  <i_lp_mmshare_version>  (2) 
65135

>  <i_m_ct_format>  (2) 
2

>  <i_m_source_file_index>  (2) 
1825

>  <i_qp_#NandO>  (2) 
3

>  <i_qp_#acid>  (2) 
0

>  <i_qp_#amide>  (2) 
0

>  <i_qp_#amidine>  (2) 
0

>  <i_qp_#amine>  (2) 
0

>  <i_qp_#in34>  (2) 
0

>  <i_qp_#in56>  (2) 
22

>  <i_qp_#metab>  (2) 
4

>  <i_qp_#nonHatm>  (2) 
25

>  <i_qp_#noncon>  (2) 
1

>  <i_qp_#ringatoms>  (2) 
22

>  <i_qp_#rotor>  (2) 
2

>  <i_qp_#rtvFG>  (2) 
0

>  <i_qp_#stars>  (2) 
0

>  <i_qp_CNS>  (2) 
1

>  <i_qp_HumanOralAbsorption>  (2) 
3

>  <i_qp_RuleOfFive>  (2) 
0

>  <i_qp_RuleOfThree>  (2) 
0

>  <i_sd_BIOSOLVEIT.INFINISEE\_REAGENT1\_NAME>  (2) 
89518

>  <i_sd_BIOSOLVEIT.INFINISEE\_REAGENT2\_NAME>  (2) 
10970556

>  <i_sd_BIOSOLVEIT.INFINISEE\_RESULT\_RANK>  (2) 
79470

>  <i_sd_version>  (2) 
0

>  <b_lp_Chiralities_Consistent>  (2) 
1

>  <b_sd_chiral_flag>  (2) 
0

>  <acquisition_id>  (2) 
ATP-ACQ-0002

>  <canonical_id>  (2) 
ATP-HTVS-40E764CABCB1

>  <compound_code>  (2) 
58370

>  <title>  (2) 
m_66bab____89518____10970556

>  <variant>  (2) 
58370-1

>  <selection_arm>  (2) 
descriptor_diversity

>  <priority>  (2) 
P0

>  <wave>  (2) 
1

>  <source_file>  (2) 
运行/运行/ATP-VSW/ATP-VSW-DOCK_HTVS_1-002_lib.maegz

>  <canonical_smiles>  (2) 
O=C1c2ccccc2N[C@@H](c2ccc(Cl)cc2)N1Cc1ccccc1

$$$$
ATP-ACQ-0003
     RDKit          3D

 65 69  0  0  0  0  0  0  0  0999 V2000
  196.7640  180.9905  153.3455 N   0  0  0  0  0  0  0  0  0  0  0  0
  197.0104  182.0939  152.5404 C   0  0  0  0  0  0  0  0  0  0  0  0
  197.2620  183.2562  153.3230 C   0  0  0  0  0  0  0  0  0  0  0  0
  197.1334  182.8185  154.6385 N   0  0  0  0  0  0  0  0  0  0  0  0
  197.3014  183.5396  155.8543 C   0  0  0  0  0  0  0  0  0  0  0  0
  196.3957  183.4080  156.9321 C   0  0  0  0  0  0  0  0  0  0  0  0
  196.6168  184.0824  158.1504 C   0  0  0  0  0  0  0  0  0  0  0  0
  197.7145  184.9552  158.2856 C   0  0  0  0  0  0  0  0  0  0  0  0
  198.5898  185.1458  157.1942 C   0  0  0  0  0  0  0  0  0  0  0  0
  198.3945  184.4304  155.9907 C   0  0  0  0  0  0  0  0  0  0  0  0
  196.8235  181.4891  154.5801 C   0  0  0  0  0  0  0  0  0  0  0  0
  196.6360  180.6130  155.7818 C   0  0  1  0  0  0  0  0  0  0  0  0
  197.9543  180.3425  156.5270 C   0  0  1  0  0  0  0  0  0  0  0  0
  198.5257  179.0446  156.1256 N   0  0  1  0  0  0  0  0  0  0  0  0
  199.9734  178.8987  156.3759 C   0  0  1  0  0  0  0  0  0  0  0  0
  200.4905  177.5817  155.8218 C   0  0  0  0  0  0  0  0  0  0  0  0
  200.3065  177.2638  154.4634 C   0  0  0  0  0  0  0  0  0  0  0  0
  200.8148  176.0523  153.9459 C   0  0  0  0  0  0  0  0  0  0  0  0
  201.5195  175.1526  154.7752 C   0  0  0  0  0  0  0  0  0  0  0  0
  202.0328  173.9505  154.2659 N   0  0  0  0  0  0  0  0  0  0  0  0
  201.3079  173.1751  153.2612 C   0  0  1  0  0  0  0  0  0  0  0  0
  202.2262  172.8605  152.0641 C   0  0  1  0  0  0  0  0  0  0  0  0
  203.5008  172.2528  152.5112 N   0  0  2  0  0  0  0  0  0  0  0  0
  204.2090  173.1066  153.4846 C   0  0  1  0  0  0  0  0  0  0  0  0
  203.3202  173.4171  154.7066 C   0  0  1  0  0  0  0  0  0  0  0  0
  204.3635  171.9101  151.3579 C   0  0  2  0  0  0  0  0  0  0  0  0
  201.6992  175.4846  156.1349 C   0  0  0  0  0  0  0  0  0  0  0  0
  201.1763  176.6857  156.6611 C   0  0  0  0  0  0  0  0  0  0  0  0
  197.5648  184.4964  152.7178 C   0  0  0  0  0  0  0  0  0  0  0  0
  197.6224  184.5834  151.3121 C   0  0  0  0  0  0  0  0  0  0  0  0
  197.3696  183.4436  150.5208 C   0  0  0  0  0  0  0  0  0  0  0  0
  197.0651  182.2064  151.1307 C   0  0  0  0  0  0  0  0  0  0  0  0
  198.0312  178.3501  156.6957 H   0  0  0  0  0  0  0  0  0  0  0  0
  195.5260  182.7855  156.8397 H   0  0  0  0  0  0  0  0  0  0  0  0
  195.9367  183.9259  158.9737 H   0  0  0  0  0  0  0  0  0  0  0  0
  197.8664  185.4971  159.2110 H   0  0  0  0  0  0  0  0  0  0  0  0
  199.4140  185.8500  157.2747 H   0  0  0  0  0  0  0  0  0  0  0  0
  199.0838  184.5820  155.1714 H   0  0  0  0  0  0  0  0  0  0  0  0
  195.8951  181.0477  156.4519 H   0  0  0  0  0  0  0  0  0  0  0  0
  196.2243  179.6517  155.4436 H   0  0  0  0  0  0  0  0  0  0  0  0
  198.6740  181.1445  156.3691 H   0  0  0  0  0  0  0  0  0  0  0  0
  197.7883  180.3046  157.6022 H   0  0  0  0  0  0  0  0  0  0  0  0
  200.5196  179.7165  155.8966 H   0  0  0  0  0  0  0  0  0  0  0  0
  200.1563  178.9671  157.4502 H   0  0  0  0  0  0  0  0  0  0  0  0
  199.7890  177.9442  153.7999 H   0  0  0  0  0  0  0  0  0  0  0  0
  200.6668  175.8398  152.8993 H   0  0  0  0  0  0  0  0  0  0  0  0
  200.9879  172.2405  153.7184 H   0  0  0  0  0  0  0  0  0  0  0  0
  200.3943  173.6750  152.9262 H   0  0  0  0  0  0  0  0  0  0  0  0
  201.7034  172.2161  151.3504 H   0  0  0  0  0  0  0  0  0  0  0  0
  202.4409  173.7924  151.5381 H   0  0  0  0  0  0  0  0  0  0  0  0
  205.1428  172.6362  153.8088 H   0  0  0  0  0  0  0  0  0  0  0  0
  204.4839  174.0459  153.0043 H   0  0  0  0  0  0  0  0  0  0  0  0
  203.8368  174.1208  155.3649 H   0  0  0  0  0  0  0  0  0  0  0  0
  203.1540  172.5047  155.2803 H   0  0  0  0  0  0  0  0  0  0  0  0
  204.6908  172.8151  150.8472 H   0  0  0  0  0  0  0  0  0  0  0  0
  203.8334  171.2925  150.6297 H   0  0  0  0  0  0  0  0  0  0  0  0
  205.2520  171.3637  151.6795 H   0  0  0  0  0  0  0  0  0  0  0  0
  202.2305  174.8222  156.7999 H   0  0  0  0  0  0  0  0  0  0  0  0
  201.3248  176.9188  157.7051 H   0  0  0  0  0  0  0  0  0  0  0  0
  197.7500  185.3719  153.3222 H   0  0  0  0  0  0  0  0  0  0  0  0
  197.8588  185.5261  150.8394 H   0  0  0  0  0  0  0  0  0  0  0  0
  197.4168  183.5147  149.4436 H   0  0  0  0  0  0  0  0  0  0  0  0
  196.8859  181.3300  150.5240 H   0  0  0  0  0  0  0  0  0  0  0  0
  198.3481  178.9052  155.1449 H   0  0  0  0  0  0  0  0  0  0  0  0
  203.2983  171.3774  153.0203 H   0  0  0  0  0  0  0  0  0  0  0  0
  1  2  1  0
  1 11  2  0
  2  3  1  0
  2 32  2  0
  3  4  1  0
  3 29  2  0
  4  5  1  0
  4 11  1  0
  5  6  2  0
  5 10  1  0
  6  7  1  0
  6 34  1  0
  7  8  2  0
  7 35  1  0
  8  9  1  0
  8 36  1  0
  9 10  2  0
  9 37  1  0
 10 38  1  0
 11 12  1  0
 12 13  1  0
 12 39  1  1
 12 40  1  0
 13 14  1  0
 13 41  1  1
 13 42  1  0
 14 15  1  0
 14 33  1  1
 14 64  1  0
 15 16  1  0
 15 43  1  6
 15 44  1  0
 16 17  1  0
 16 28  2  0
 17 18  2  0
 17 45  1  0
 18 19  1  0
 18 46  1  0
 19 20  1  0
 19 27  2  0
 20 21  1  0
 20 25  1  0
 21 22  1  0
 21 47  1  1
 21 48  1  0
 22 23  1  0
 22 49  1  6
 22 50  1  0
 23 24  1  0
 23 26  1  0
 23 65  1  1
 24 25  1  0
 24 51  1  1
 24 52  1  0
 25 53  1  1
 25 54  1  0
 26 55  1  6
 26 56  1  0
 26 57  1  0
 27 28  1  0
 27 58  1  0
 28 59  1  0
 29 30  1  0
 29 60  1  0
 30 31  2  0
 30 61  1  0
 31 32  1  0
 31 62  1  0
 32 63  1  0
M  CHG  2  14   1  23   1
M  END
>  <s_epik_cmdline>  (3) 
J2VwaWtfcHl0aG9uJywgJy1waCcsICc3LjAwMDAwMCcsICctcGh0JywgJzIuMDAwMDAwJywgJy1tcycsICcxNicsICctdG4nLCAnOCcsICctbWEnLCAnMjAwJywgJy1pbWFlJywgJzxpbmZpbGUubWFlPicsICctb21hZScsICc8b3V0ZmlsZS5tYWU+Jw==

>  <s_epik_input>  (3) 
W2NIXTFbY0hdW2NIXVtjSF1bY0hdYzEtbihjKGMyMylbY0hdW2NIXVtjSF1bY0hdMyljKG4yKVtDSDJdW0NIMl1bTkhdW0NIMl1jNFtjSF1bY0hdYyhbY0hdW2NIXTQpTjVbQ0gyXVtDSDJdTihbQ0gzXSlbQ0gyXVtDSDJdNQ==

>  <s_i_glide_gridfile>  (3) 
ATP-Grid

>  <s_lp_Force_Field>  (3) 
OPLS_2005

>  <s_lp_Variant>  (3) 
m_270004bbb____21660890____8300602-1

>  <s_lp_label>  (3) 
1551_sdstereoexpander_1_neutralizer_1_epik_1_stereoizer_1

>  <s_m_source_file>  (3) 
ATP-VSW-LIGPREP-002-in.maegz

>  <s_sd_BIOSOLVEIT.INFINISEE\_QUERY\_NAME>  (3) 
Ref-Lig

>  <s_sd_BIOSOLVEIT.INFINISEE\_QUERY\_SMILES>  (3) 
S(c1nc2c(cc1C[NH2+]Cc3ccc(cc3)C[NH+](C)C)cccc2)Cc4ccccc4

>  <s_sd_BIOSOLVEIT.INFINISEE\_REACTION\_NAME>  (3) 
m_270004bbb

>  <s_sd_BIOSOLVEIT.INFINISEE\_REAGENT1\_SMILES>  (3) 
[R1*]NCCC1=Nc2c(N1c3ccccc3)cccc2

>  <s_sd_BIOSOLVEIT.INFINISEE\_REAGENT2\_SMILES>  (3) 
[R1*]Cc1ccc(N2CCN(CC2)C)cc1

>  <s_sd_BIOSOLVEIT.INFINISEE\_SPACE>  (3) 
REALSpace_44bn_2023-08

>  <s_vsw_compound_code>  (3) 
49602

>  <s_vsw_variant>  (3) 
49602-1

>  <r_epik_Charging_Adjusted_Penalty>  (3) 
0.31884055362863301

>  <r_epik_Ionization_Penalty>  (3) 
0.1842

>  <r_epik_Ionization_Penalty_Charging>  (3) 
0.17100000000000001

>  <r_epik_Ionization_Penalty_Neutral>  (3) 
0.0132

>  <r_epik_State_Penalty>  (3) 
0.14779999999999999

>  <r_i_docking_score>  (3) 
-5.6375250103448797

>  <r_i_glide_ecoul>  (3) 
-16.872533798217798

>  <r_i_glide_eff_state_penalty>  (3) 
0.14779999999999999

>  <r_i_glide_einternal>  (3) 
9.7809638977050799

>  <r_i_glide_emodel>  (3) 
-72.826645391868496

>  <r_i_glide_energy>  (3) 
-49.2134685516357

>  <r_i_glide_erotb>  (3) 
0.760239253932252

>  <r_i_glide_esite>  (3) 
-0.264486795694507

>  <r_i_glide_evdw>  (3) 
-32.340934753417997

>  <r_i_glide_gscore>  (3) 
-5.7853250103448799

>  <r_i_glide_hbond>  (3) 
-0.40000000000000002

>  <r_i_glide_ligand_efficiency>  (3) 
-0.17617265657327799

>  <r_i_glide_ligand_efficiency_ln>  (3) 
-1.26239552294405

>  <r_i_glide_ligand_efficiency_sa>  (3) 
-0.559313320098762

>  <r_i_glide_lipo>  (3) 
-0.96314317945710004

>  <r_i_glide_metal>  (3) 
-0

>  <r_i_glide_rewards>  (3) 
-0.77000748172195999

>  <r_lp_Energy>  (3) 
41.938363000000003

>  <r_qp_ACxDN^.5/SA>  (3) 
0.0083823999999999999

>  <r_qp_CIQPlogS>  (3) 
-4.7309999999999999

>  <r_qp_EA(eV)>  (3) 
0.35899999999999999

>  <r_qp_FISA>  (3) 
44.054000000000002

>  <r_qp_FOSA>  (3) 
305.47000000000003

>  <r_qp_IP(eV)>  (3) 
8.4179999999999993

>  <r_qp_Jm>  (3) 
0.00131701890501222

>  <r_qp_PISA>  (3) 
366.26100000000002

>  <r_qp_PSA>  (3) 
39.091999999999999

>  <r_qp_PercentHumanOralAbsorption>  (3) 
95.700000000000003

>  <r_qp_QPPCaco>  (3) 
235.46899999999999

>  <r_qp_QPPMDCK>  (3) 
126.836

>  <r_qp_QPlogBB>  (3) 
0.63900000000000001

>  <r_qp_QPlogHERG>  (3) 
-7.3869999999999996

>  <r_qp_QPlogKhsa>  (3) 
0.97399999999999998

>  <r_qp_QPlogKp>  (3) 
-4.6859999999999999

>  <r_qp_QPlogPC16>  (3) 
14.07

>  <r_qp_QPlogPo/w>  (3) 
4.492

>  <r_qp_QPlogPoct>  (3) 
21.245000000000001

>  <r_qp_QPlogPw>  (3) 
10.504

>  <r_qp_QPlogS>  (3) 
-3.823

>  <r_qp_QPpolrz>  (3) 
49.200000000000003

>  <r_qp_SASA>  (3) 
715.78599999999994

>  <r_qp_SAamideO>  (3) 
0

>  <r_qp_SAfluorine>  (3) 
0

>  <r_qp_WPSA>  (3) 
0

>  <r_qp_accptHB>  (3) 
6

>  <r_qp_dip^2/V>  (3) 
0.020270799999999999

>  <r_qp_dipole>  (3) 
5.2809999999999997

>  <r_qp_donorHB>  (3) 
1

>  <r_qp_glob>  (3) 
0.8358392

>  <r_qp_mol_MW>  (3) 
425.57499999999999

>  <r_qp_volume>  (3) 
1375.9760000000001

>  <r_sd_BIOSOLVEIT.INFINISEE\_FTREES\_SIMILARITY>  (3) 
0.90600000000000003

>  <r_sd_BIOSOLVEIT.LOGP>  (3) 
1.6662999999999999

>  <r_sd_BIOSOLVEIT.MOLECULAR\_WEIGHT>  (3) 
427.59300000000002

>  <r_sd_BIOSOLVEIT.TPSA>  (3) 
42.109999999999999

>  <i_epik_Tot_Q>  (3) 
2

>  <i_epik_Tot_abs_Q>  (3) 
2

>  <i_f3d_flags>  (3) 
0

>  <i_i_glide_confnum>  (3) 
7

>  <i_i_glide_lignum>  (3) 
534

>  <i_i_glide_posenum>  (3) 
16

>  <i_i_glide_rotatable_bonds>  (3) 
7

>  <i_lp_mmshare_version>  (3) 
65135

>  <i_m_ct_format>  (3) 
2

>  <i_m_source_file_index>  (3) 
1551

>  <i_qp_#NandO>  (3) 
5

>  <i_qp_#acid>  (3) 
0

>  <i_qp_#amide>  (3) 
0

>  <i_qp_#amidine>  (3) 
0

>  <i_qp_#amine>  (3) 
2

>  <i_qp_#in34>  (3) 
0

>  <i_qp_#in56>  (3) 
27

>  <i_qp_#metab>  (3) 
4

>  <i_qp_#nonHatm>  (3) 
32

>  <i_qp_#noncon>  (3) 
4

>  <i_qp_#ringatoms>  (3) 
27

>  <i_qp_#rotor>  (3) 
5

>  <i_qp_#rtvFG>  (3) 
0

>  <i_qp_#stars>  (3) 
0

>  <i_qp_CNS>  (3) 
2

>  <i_qp_HumanOralAbsorption>  (3) 
3

>  <i_qp_RuleOfFive>  (3) 
0

>  <i_qp_RuleOfThree>  (3) 
0

>  <i_sd_BIOSOLVEIT.INFINISEE\_REAGENT1\_NAME>  (3) 
21660890

>  <i_sd_BIOSOLVEIT.INFINISEE\_REAGENT2\_NAME>  (3) 
8300602

>  <i_sd_BIOSOLVEIT.INFINISEE\_RESULT\_RANK>  (3) 
62417

>  <i_sd_version>  (3) 
0

>  <b_lp_Chiralities_Consistent>  (3) 
1

>  <b_sd_chiral_flag>  (3) 
0

>  <acquisition_id>  (3) 
ATP-ACQ-0003

>  <canonical_id>  (3) 
ATP-HTVS-442C36D59863

>  <compound_code>  (3) 
49602

>  <title>  (3) 
m_270004bbb____21660890____8300602

>  <variant>  (3) 
49602-1

>  <selection_arm>  (3) 
score_calibration

>  <priority>  (3) 
P0

>  <wave>  (3) 
1

>  <source_file>  (3) 
运行/运行/ATP-VSW/ATP-VSW-DOCK_HTVS_1-002_lib.maegz

>  <canonical_smiles>  (3) 
C[NH+]1CCN(c2ccc(C[NH2+]CCc3nc4ccccc4n3-c3ccccc3)cc2)CC1

$$$$
ATP-ACQ-0004
     RDKit          3D

 56 59  0  0  0  0  0  0  0  0999 V2000
  197.5163  184.2612  152.2366 F   0  0  0  0  0  0  0  0  0  0  0  0
  197.1323  182.9620  152.2910 C   0  0  0  0  0  0  0  0  0  0  0  0
  197.0932  182.3465  153.5280 C   0  0  0  0  0  0  0  0  0  0  0  0
  196.7696  180.9771  153.6503 C   0  0  0  0  0  0  0  0  0  0  0  0
  196.3673  180.2526  152.4800 C   0  0  0  0  0  0  0  0  0  0  0  0
  196.3457  180.9146  151.2259 C   0  0  0  0  0  0  0  0  0  0  0  0
  196.7447  182.2699  151.1190 C   0  0  0  0  0  0  0  0  0  0  0  0
  196.7892  180.2449  155.0028 C   0  0  2  0  0  0  0  0  0  0  0  0
  196.5059  181.1537  156.1458 N   0  0  1  0  0  0  0  0  0  0  0  0
  197.6575  182.0033  156.6197 C   0  0  1  0  0  0  0  0  0  0  0  0
  197.0196  183.0428  157.4542 C   0  0  0  0  0  0  0  0  0  0  0  0
  196.5373  183.9325  158.1423 C   0  0  0  0  0  0  0  0  0  0  0  0
  195.9867  184.9194  159.0438 C   0  0  0  0  0  0  0  0  0  0  0  0
  196.6014  186.1595  159.3249 C   0  0  0  0  0  0  0  0  0  0  0  0
  195.9671  187.0320  160.2404 C   0  0  0  0  0  0  0  0  0  0  0  0
  194.7499  186.6210  160.8386 C   0  0  0  0  0  0  0  0  0  0  0  0
  194.1560  185.4541  160.4993 N   0  0  0  0  0  0  0  0  0  0  0  0
  194.7706  184.6073  159.6634 C   0  0  0  0  0  0  0  0  0  0  0  0
  194.1248  187.5258  161.7355 N   0  0  0  0  0  0  0  0  0  0  0  0
  193.1047  187.3380  162.5932 C   0  0  0  0  0  0  0  0  0  0  0  0
  192.6712  186.2343  162.9326 O   0  0  0  0  0  0  0  0  0  0  0  0
  192.5957  188.5846  163.2686 C   0  0  0  0  0  0  0  0  0  0  0  0
  191.9619  188.4973  164.5320 C   0  0  0  0  0  0  0  0  0  0  0  0
  191.4535  189.6536  165.1594 C   0  0  0  0  0  0  0  0  0  0  0  0
  190.8444  189.5689  166.3779 O   0  0  0  0  0  0  0  0  0  0  0  0
  191.5867  190.9067  164.5310 C   0  0  0  0  0  0  0  0  0  0  0  0
  192.2246  191.0067  163.2819 C   0  0  0  0  0  0  0  0  0  0  0  0
  192.7374  189.8564  162.6582 C   0  0  0  0  0  0  0  0  0  0  0  0
  196.5581  188.2864  160.5163 C   0  0  0  0  0  0  0  0  0  0  0  0
  197.7732  188.6506  159.9146 C   0  0  0  0  0  0  0  0  0  0  0  0
  198.4126  187.7731  159.0249 C   0  0  0  0  0  0  0  0  0  0  0  0
  197.8297  186.5311  158.7290 C   0  0  0  0  0  0  0  0  0  0  0  0
  198.0902  179.4514  155.2427 C   0  0  2  0  0  0  0  0  0  0  0  0
  195.6765  181.7110  155.8938 H   0  0  0  0  0  0  0  0  0  0  0  0
  197.2854  183.0497  154.2859 H   0  0  0  0  0  0  0  0  0  0  0  0
  196.0335  179.1938  152.5385 H   0  0  0  0  0  0  0  0  0  0  0  0
  196.0279  180.4078  150.3413 H   0  0  0  0  0  0  0  0  0  0  0  0
  196.7461  182.8295  150.1638 H   0  0  0  0  0  0  0  0  0  0  0  0
  195.9808  179.5043  155.0278 H   0  0  0  0  0  0  0  0  0  0  0  0
  198.3786  181.4049  157.2308 H   0  0  0  0  0  0  0  0  0  0  0  0
  198.2904  182.4956  155.9146 H   0  0  0  0  0  0  0  0  0  0  0  0
  194.2616  183.6676  159.4858 H   0  0  0  0  0  0  0  0  0  0  0  0
  194.4569  188.4777  161.6664 H   0  0  0  0  0  0  0  0  0  0  0  0
  191.8484  187.5356  165.0200 H   0  0  0  0  0  0  0  0  0  0  0  0
  190.8671  188.6928  166.7318 H   0  0  0  0  0  0  0  0  0  0  0  0
  191.2015  191.7984  165.0010 H   0  0  0  0  0  0  0  0  0  0  0  0
  192.3235  191.9606  162.7891 H   0  0  0  0  0  0  0  0  0  0  0  0
  193.1934  189.9537  161.6862 H   0  0  0  0  0  0  0  0  0  0  0  0
  196.1194  188.9879  161.2065 H   0  0  0  0  0  0  0  0  0  0  0  0
  198.2292  189.5964  160.1640 H   0  0  0  0  0  0  0  0  0  0  0  0
  199.3528  188.0555  158.5772 H   0  0  0  0  0  0  0  0  0  0  0  0
  198.3455  185.8766  158.0421 H   0  0  0  0  0  0  0  0  0  0  0  0
  198.2766  178.7313  154.4459 H   0  0  0  0  0  0  0  0  0  0  0  0
  198.0500  178.8917  156.1794 H   0  0  0  0  0  0  0  0  0  0  0  0
  198.9583  180.1119  155.2872 H   0  0  0  0  0  0  0  0  0  0  0  0
  196.1979  180.5345  156.9211 H   0  0  0  0  0  0  0  0  0  0  0  0
  1  2  1  0
  2  3  2  0
  2  7  1  0
  3  4  1  0
  3 35  1  0
  4  5  2  0
  4  8  1  0
  5  6  1  0
  5 36  1  0
  6  7  2  0
  6 37  1  0
  7 38  1  0
  8  9  1  0
  8 33  1  0
  8 39  1  6
  9 10  1  0
  9 34  1  6
  9 56  1  0
 10 11  1  0
 10 40  1  1
 10 41  1  0
 11 12  3  0
 12 13  1  0
 13 14  2  0
 13 18  1  0
 14 15  1  0
 14 32  1  0
 15 16  2  0
 15 29  1  0
 16 17  1  0
 16 19  1  0
 17 18  2  0
 18 42  1  0
 19 20  1  0
 19 43  1  0
 20 21  2  0
 20 22  1  0
 22 23  1  0
 22 28  2  0
 23 24  2  0
 23 44  1  0
 24 25  1  0
 24 26  1  0
 25 45  1  0
 26 27  2  0
 26 46  1  0
 27 28  1  0
 27 47  1  0
 28 48  1  0
 29 30  2  0
 29 49  1  0
 30 31  1  0
 30 50  1  0
 31 32  2  0
 31 51  1  0
 32 52  1  0
 33 53  1  6
 33 54  1  0
 33 55  1  0
M  CHG  1   9   1
M  END
>  <s_epik_cmdline>  (4) 
J2VwaWtfcHl0aG9uJywgJy1waCcsICc3LjAwMDAwMCcsICctcGh0JywgJzIuMDAwMDAwJywgJy1tcycsICcxNicsICctdG4nLCAnOCcsICctbWEnLCAnMjAwJywgJy1pbWFlJywgJzxpbmZpbGUubWFlPicsICctb21hZScsICc8b3V0ZmlsZS5tYWU+Jw==

>  <s_epik_input>  (4) 
RmMxW2NIXWMoW2NIXVtjSF1bY0hdMSlbQ0BASF0oW0NIM10pW05IXVtDSDJdQyNDYzJbY0hdbmMoYyhjMjMpW2NIXVtjSF1bY0hdW2NIXTMpW05IXUMoPU8pYzRbY0hdYyhbT0hdKVtjSF1bY0hdW2NIXTQ=

>  <s_i_glide_gridfile>  (4) 
ATP-Grid

>  <s_lp_Force_Field>  (4) 
OPLS_2005

>  <s_lp_Variant>  (4) 
rxn503b____EMOL519605____EMOL7515103____EMOL317509042-3

>  <s_lp_label>  (4) 
2618_sdstereoexpander_1_neutralizer_1_epik_2_stereoizer_1

>  <s_m_source_file>  (4) 
ATP-VSW-LIGPREP-003-in.maegz

>  <s_sd_BIOSOLVEIT.INFINISEE\_QUERY\_NAME>  (4) 
Ref-Lig

>  <s_sd_BIOSOLVEIT.INFINISEE\_QUERY\_SMILES>  (4) 
S(c1nc2c(cc1C[NH2+]Cc3ccc(cc3)C[NH+](C)C)cccc2)Cc4ccccc4

>  <s_sd_BIOSOLVEIT.INFINISEE\_REACTION\_NAME>  (4) 
rxn503b

>  <s_sd_BIOSOLVEIT.INFINISEE\_REAGENT1\_NAME>  (4) 
EMOL519605

>  <s_sd_BIOSOLVEIT.INFINISEE\_REAGENT1\_SMILES>  (4) 
O=C(O)c1cc(O)ccc1

>  <s_sd_BIOSOLVEIT.INFINISEE\_REAGENT2\_NAME>  (4) 
EMOL7515103

>  <s_sd_BIOSOLVEIT.INFINISEE\_REAGENT2\_SMILES>  (4) 
Brc1c2c(c(nc1)N)cccc2

>  <s_sd_BIOSOLVEIT.INFINISEE\_REAGENT3\_NAME>  (4) 
EMOL317509042

>  <s_sd_BIOSOLVEIT.INFINISEE\_REAGENT3\_SMILES>  (4) 
Fc1cc(ccc1)C(NCC#C)C

>  <s_sd_BIOSOLVEIT.INFINISEE\_SPACE>  (4) 
eXplore_7tr_2022-12

>  <s_vsw_compound_code>  (4) 
83747

>  <s_vsw_variant>  (4) 
83747-3

>  <r_epik_Charging_Adjusted_Penalty>  (4) 
1.26014688583507

>  <r_epik_Ionization_Penalty>  (4) 
0.63260000000000005

>  <r_epik_Ionization_Penalty_Charging>  (4) 
0.62760000000000005

>  <r_epik_Ionization_Penalty_Neutral>  (4) 
0.0050000000000000001

>  <r_epik_State_Penalty>  (4) 
0.63260000000000005

>  <r_i_docking_score>  (4) 
-6.8080311750360698

>  <r_i_glide_ecoul>  (4) 
-12.7041931152344

>  <r_i_glide_eff_state_penalty>  (4) 
0.63260000000000005

>  <r_i_glide_einternal>  (4) 
6.27807664871216

>  <r_i_glide_emodel>  (4) 
-92.053093936602494

>  <r_i_glide_energy>  (4) 
-59.172935485839801

>  <r_i_glide_erotb>  (4) 
0.72034826401853402

>  <r_i_glide_esite>  (4) 
-0.090740604689311499

>  <r_i_glide_evdw>  (4) 
-46.468742370605497

>  <r_i_glide_gscore>  (4) 
-7.4406311750360699

>  <r_i_glide_hbond>  (4) 
-0.54026008402495995

>  <r_i_glide_ligand_efficiency>  (4) 
-0.20630397500109299

>  <r_i_glide_ligand_efficiency_ln>  (4) 
-1.5140708832291401

>  <r_i_glide_ligand_efficiency_sa>  (4) 
-0.66172708145936299

>  <r_i_glide_lipo>  (4) 
-2.4326195912099302

>  <r_i_glide_metal>  (4) 
-0

>  <r_i_glide_rewards>  (4) 
-0.86829307331497596

>  <r_lp_Energy>  (4) 
24.252707999999998

>  <r_lp_tautomer_probability>  (4) 
0.999999999997365

>  <r_qp_ACxDN^.5/SA>  (4) 
0.0121023

>  <r_qp_CIQPlogS>  (4) 
-5.9480000000000004

>  <r_qp_EA(eV)>  (4) 
1.1990000000000001

>  <r_qp_FISA>  (4) 
128.16399999999999

>  <r_qp_FOSA>  (4) 
128.63499999999999

>  <r_qp_IP(eV)>  (4) 
8.3940000000000001

>  <r_qp_Jm>  (4) 
6.4133655119297004e-05

>  <r_qp_PISA>  (4) 
519.16499999999996

>  <r_qp_PSA>  (4) 
80.298000000000002

>  <r_qp_PercentHumanOralAbsorption>  (4) 
94.281999999999996

>  <r_qp_QPPCaco>  (4) 
150.459

>  <r_qp_QPPMDCK>  (4) 
127.748

>  <r_qp_QPlogBB>  (4) 
-0.93799999999999994

>  <r_qp_QPlogHERG>  (4) 
-8.8369999999999997

>  <r_qp_QPlogKhsa>  (4) 
0.86599999999999999

>  <r_qp_QPlogKp>  (4) 
-3.347

>  <r_qp_QPlogPC16>  (4) 
16.818000000000001

>  <r_qp_QPlogPo/w>  (4) 
4.8440000000000003

>  <r_qp_QPlogPoct>  (4) 
25.765000000000001

>  <r_qp_QPlogPw>  (4) 
14.412000000000001

>  <r_qp_QPlogS>  (4) 
-6.4889999999999999

>  <r_qp_QPpolrz>  (4) 
50.957000000000001

>  <r_qp_SASA>  (4) 
822.923

>  <r_qp_SAamideO>  (4) 
0

>  <r_qp_SAfluorine>  (4) 
46.957999999999998

>  <r_qp_WPSA>  (4) 
46.957999999999998

>  <r_qp_accptHB>  (4) 
5.75

>  <r_qp_dip^2/V>  (4) 
0.074619900000000003

>  <r_qp_dipole>  (4) 
10.335000000000001

>  <r_qp_donorHB>  (4) 
3

>  <r_qp_glob>  (4) 
0.74645799999999995

>  <r_qp_mol_MW>  (4) 
439.488

>  <r_qp_volume>  (4) 
1431.5260000000001

>  <r_sd_BIOSOLVEIT.INFINISEE\_FTREES\_SIMILARITY>  (4) 
0.91100000000000003

>  <r_sd_BIOSOLVEIT.LOGP>  (4) 
4.0079000000000002

>  <r_sd_BIOSOLVEIT.MOLECULAR\_WEIGHT>  (4) 
440.49599999999998

>  <r_sd_BIOSOLVEIT.TPSA>  (4) 
78.829999999999998

>  <i_epik_Tot_Q>  (4) 
1

>  <i_epik_Tot_abs_Q>  (4) 
1

>  <i_f3d_flags>  (4) 
0

>  <i_i_glide_confnum>  (4) 
2

>  <i_i_glide_lignum>  (4) 
1192

>  <i_i_glide_posenum>  (4) 
10

>  <i_i_glide_rotatable_bonds>  (4) 
9

>  <i_lp_mmshare_version>  (4) 
65135

>  <i_m_ct_format>  (4) 
2

>  <i_m_source_file_index>  (4) 
2618

>  <i_qp_#NandO>  (4) 
5

>  <i_qp_#acid>  (4) 
0

>  <i_qp_#amide>  (4) 
0

>  <i_qp_#amidine>  (4) 
0

>  <i_qp_#amine>  (4) 
1

>  <i_qp_#in34>  (4) 
0

>  <i_qp_#in56>  (4) 
22

>  <i_qp_#metab>  (4) 
6

>  <i_qp_#nonHatm>  (4) 
33

>  <i_qp_#noncon>  (4) 
0

>  <i_qp_#ringatoms>  (4) 
22

>  <i_qp_#rotor>  (4) 
8

>  <i_qp_#rtvFG>  (4) 
0

>  <i_qp_#stars>  (4) 
2

>  <i_qp_CNS>  (4) 
-1

>  <i_qp_HumanOralAbsorption>  (4) 
1

>  <i_qp_RuleOfFive>  (4) 
0

>  <i_qp_RuleOfThree>  (4) 
1

>  <i_sd_BIOSOLVEIT.INFINISEE\_RESULT\_RANK>  (4) 
43229

>  <i_sd_version>  (4) 
0

>  <b_lp_Chiralities_Consistent>  (4) 
1

>  <b_sd_chiral_flag>  (4) 
0

>  <acquisition_id>  (4) 
ATP-ACQ-0004

>  <canonical_id>  (4) 
ATP-HTVS-780990BE0E68

>  <compound_code>  (4) 
83747

>  <title>  (4) 
rxn503b____EMOL519605____EMOL7515103____EMOL317509042

>  <variant>  (4) 
83747-3

>  <selection_arm>  (4) 
exploitation

>  <priority>  (4) 
P0

>  <wave>  (4) 
1

>  <source_file>  (4) 
运行/运行/ATP-VSW/ATP-VSW-DOCK_HTVS_1-003_lib/ATP-VSW-DOCK_HTVS_1-003_lib.mae

>  <canonical_smiles>  (4) 
C[C@@H]([NH2+]CC#Cc1cnc(NC(=O)c2cccc(O)c2)c2ccccc12)c1cccc(F)c1

$$$$
ATP-ACQ-0005
     RDKit          3D

 69 72  0  0  0  0  0  0  0  0999 V2000
  202.6490  182.2392  153.4851 O   0  0  0  0  0  0  0  0  0  0  0  0
  203.3169  181.2310  154.2238 C   0  0  1  0  0  0  0  0  0  0  0  0
  202.3784  180.5514  155.1993 C   0  0  0  0  0  0  0  0  0  0  0  0
  201.1264  180.0819  154.7582 C   0  0  0  0  0  0  0  0  0  0  0  0
  200.2350  179.4736  155.6694 C   0  0  0  0  0  0  0  0  0  0  0  0
  200.6184  179.3014  157.0160 C   0  0  0  0  0  0  0  0  0  0  0  0
  201.8732  179.7596  157.4554 C   0  0  0  0  0  0  0  0  0  0  0  0
  202.7504  180.3890  156.5505 C   0  0  0  0  0  0  0  0  0  0  0  0
  198.8612  179.0238  155.2088 C   0  0  1  0  0  0  0  0  0  0  0  0
  197.8133  179.9819  155.5042 N   0  0  0  0  0  0  0  0  0  0  0  0
  197.7849  181.1899  154.7879 C   0  0  0  0  0  0  0  0  0  0  0  0
  198.4469  182.2473  155.2886 N   0  0  0  0  0  0  0  0  0  0  0  0
  198.3747  183.4390  154.6829 C   0  0  0  0  0  0  0  0  0  0  0  0
  197.6991  183.6370  153.5505 N   0  0  0  0  0  0  0  0  0  0  0  0
  197.1310  182.5871  152.9434 C   0  0  0  0  0  0  0  0  0  0  0  0
  197.1195  181.2978  153.5542 C   0  0  0  0  0  0  0  0  0  0  0  0
  196.4998  180.2104  152.9103 C   0  0  0  0  0  0  0  0  0  0  0  0
  195.9635  180.4060  151.6213 C   0  0  0  0  0  0  0  0  0  0  0  0
  195.9847  181.6823  151.0294 C   0  0  0  0  0  0  0  0  0  0  0  0
  196.5735  182.7812  151.6776 C   0  0  0  0  0  0  0  0  0  0  0  0
  198.9930  184.5272  155.2285 N   0  0  0  0  0  0  0  0  0  0  0  0
  199.6772  184.4915  156.5068 C   0  0  1  0  0  0  0  0  0  0  0  0
  198.7703  184.2493  157.6859 C   0  0  0  0  0  0  0  0  0  0  0  0
  197.4012  184.5798  157.6580 C   0  0  0  0  0  0  0  0  0  0  0  0
  196.5905  184.3603  158.7982 C   0  0  0  0  0  0  0  0  0  0  0  0
  197.1428  183.8166  159.9558 C   0  0  0  0  0  0  0  0  0  0  0  0
  198.4952  183.4867  159.9666 C   0  0  0  0  0  0  0  0  0  0  0  0
  199.3273  183.6929  158.8508 C   0  0  0  0  0  0  0  0  0  0  0  0
  195.1190  184.6690  158.7867 C   0  0  1  0  0  0  0  0  0  0  0  0
  194.3298  183.4823  158.3581 N   0  0  1  0  0  0  0  0  0  0  0  0
  194.7658  182.2071  158.9170 C   0  0  1  0  0  0  0  0  0  0  0  0
  193.8561  181.0675  158.4615 C   0  0  2  0  0  0  0  0  0  0  0  0
  192.8998  183.6597  158.6770 C   0  0  2  0  0  0  0  0  0  0  0  0
  203.5045  182.9029  152.5722 C   0  0  2  0  0  0  0  0  0  0  0  0
  203.7234  180.4731  153.5509 H   0  0  0  0  0  0  0  0  0  0  0  0
  204.1582  181.6681  154.7660 H   0  0  0  0  0  0  0  0  0  0  0  0
  200.8390  180.2089  153.7244 H   0  0  0  0  0  0  0  0  0  0  0  0
  199.9411  178.8251  157.7084 H   0  0  0  0  0  0  0  0  0  0  0  0
  202.1662  179.6281  158.4866 H   0  0  0  0  0  0  0  0  0  0  0  0
  203.7151  180.7288  156.8986 H   0  0  0  0  0  0  0  0  0  0  0  0
  198.8880  178.7879  154.1534 H   0  0  0  0  0  0  0  0  0  0  0  0
  198.6149  178.1060  155.7302 H   0  0  0  0  0  0  0  0  0  0  0  0
  196.9407  179.5920  155.8258 H   0  0  0  0  0  0  0  0  0  0  0  0
  196.3817  179.2472  153.3964 H   0  0  0  0  0  0  0  0  0  0  0  0
  195.3080  179.6592  151.2074 H   0  0  0  0  0  0  0  0  0  0  0  0
  195.4872  181.8925  150.1407 H   0  0  0  0  0  0  0  0  0  0  0  0
  196.4163  183.7816  151.2650 H   0  0  0  0  0  0  0  0  0  0  0  0
  198.6838  185.4265  154.9030 H   0  0  0  0  0  0  0  0  0  0  0  0
  200.4428  183.7214  156.4678 H   0  0  0  0  0  0  0  0  0  0  0  0
  200.1718  185.4446  156.6685 H   0  0  0  0  0  0  0  0  0  0  0  0
  196.9263  184.9579  156.7711 H   0  0  0  0  0  0  0  0  0  0  0  0
  196.5482  183.6273  160.8399 H   0  0  0  0  0  0  0  0  0  0  0  0
  198.8821  183.0677  160.8725 H   0  0  0  0  0  0  0  0  0  0  0  0
  200.3778  183.4478  158.9327 H   0  0  0  0  0  0  0  0  0  0  0  0
  194.8124  185.0154  159.7700 H   0  0  0  0  0  0  0  0  0  0  0  0
  194.9362  185.5136  158.1250 H   0  0  0  0  0  0  0  0  0  0  0  0
  195.7703  181.9352  158.5922 H   0  0  0  0  0  0  0  0  0  0  0  0
  194.7496  182.2434  160.0111 H   0  0  0  0  0  0  0  0  0  0  0  0
  194.3467  180.2456  158.9796 H   0  0  0  0  0  0  0  0  0  0  0  0
  193.9275  180.8901  157.3871 H   0  0  0  0  0  0  0  0  0  0  0  0
  192.8103  181.0594  158.8066 H   0  0  0  0  0  0  0  0  0  0  0  0
  192.6983  183.7224  159.7561 H   0  0  0  0  0  0  0  0  0  0  0  0
  192.2427  182.9365  158.1178 H   0  0  0  0  0  0  0  0  0  0  0  0
  192.5901  184.6341  158.4137 H   0  0  0  0  0  0  0  0  0  0  0  0
  202.9430  183.6716  152.0416 H   0  0  0  0  0  0  0  0  0  0  0  0
  203.9082  182.2077  151.8340 H   0  0  0  0  0  0  0  0  0  0  0  0
  204.3335  183.3867  153.0901 H   0  0  0  0  0  0  0  0  0  0  0  0
  197.6808  184.5421  153.0805 H   0  0  0  0  0  0  0  0  0  0  0  0
  194.3499  183.3611  157.3544 H   0  0  0  0  0  0  0  0  0  0  0  0
  1  2  1  0
  1 34  1  0
  2  3  1  0
  2 35  1  6
  2 36  1  0
  3  4  2  0
  3  8  1  0
  4  5  1  0
  4 37  1  0
  5  6  2  0
  5  9  1  0
  6  7  1  0
  6 38  1  0
  7  8  2  0
  7 39  1  0
  8 40  1  0
  9 10  1  0
  9 41  1  6
  9 42  1  0
 10 11  1  0
 10 43  1  0
 11 12  2  0
 11 16  1  0
 12 13  1  0
 13 14  2  0
 13 21  1  0
 14 15  1  0
 14 68  1  0
 15 16  1  0
 15 20  2  0
 16 17  2  0
 17 18  1  0
 17 44  1  0
 18 19  2  0
 18 45  1  0
 19 20  1  0
 19 46  1  0
 20 47  1  0
 21 22  1  0
 21 48  1  0
 22 23  1  0
 22 49  1  6
 22 50  1  0
 23 24  2  0
 23 28  1  0
 24 25  1  0
 24 51  1  0
 25 26  2  0
 25 29  1  0
 26 27  1  0
 26 52  1  0
 27 28  2  0
 27 53  1  0
 28 54  1  0
 29 30  1  0
 29 55  1  1
 29 56  1  0
 30 31  1  0
 30 33  1  0
 30 69  1  6
 31 32  1  0
 31 57  1  1
 31 58  1  0
 32 59  1  1
 32 60  1  0
 32 61  1  0
 33 62  1  1
 33 63  1  0
 33 64  1  0
 34 65  1  6
 34 66  1  0
 34 67  1  0
M  CHG  2  14   1  30   1
M  END
>  <s_epik_cmdline>  (5) 
J2VwaWtfcHl0aG9uJywgJy1waCcsICc3LjAwMDAwMCcsICctcGh0JywgJzIuMDAwMDAwJywgJy1tcycsICcxNicsICctdG4nLCAnOCcsICctbWEnLCAnMjAwJywgJy1pbWFlJywgJzxpbmZpbGUubWFlPicsICctb21hZScsICc8b3V0ZmlsZS5tYWU+Jw==

>  <s_epik_input>  (5) 
W0NIM11PW0NIMl1jMVtjSF1jKFtjSF1bY0hdW2NIXTEpW0NIMl1bTkhdYyhjKGMyMylbY0hdW2NIXVtjSF1bY0hdMyluYyhuMilbTkhdW0NIMl1jNFtjSF1jKFtjSF1bY0hdW2NIXTQpW0NIMl1OKFtDSDNdKVtDSDJdW0NIM10=

>  <s_i_glide_gridfile>  (5) 
ATP-Grid

>  <s_lp_Force_Field>  (5) 
OPLS_2005

>  <s_lp_Variant>  (5) 
m_282030aaa____21928106____22360182____21950844-1

>  <s_lp_label>  (5) 
2111_sdstereoexpander_1_neutralizer_1_epik_1_stereoizer_1

>  <s_m_source_file>  (5) 
ATP-VSW-LIGPREP-002-in.maegz

>  <s_sd_BIOSOLVEIT.INFINISEE\_QUERY\_NAME>  (5) 
Ref-Lig

>  <s_sd_BIOSOLVEIT.INFINISEE\_QUERY\_SMILES>  (5) 
S(c1nc2c(cc1C[NH2+]Cc3ccc(cc3)C[NH+](C)C)cccc2)Cc4ccccc4

>  <s_sd_BIOSOLVEIT.INFINISEE\_REACTION\_NAME>  (5) 
m_282030aaa

>  <s_sd_BIOSOLVEIT.INFINISEE\_REAGENT1\_SMILES>  (5) 
[R1*]NCc1cc(ccc1)COC

>  <s_sd_BIOSOLVEIT.INFINISEE\_REAGENT2\_SMILES>  (5) 
[R2*]c1nc([R1*])c2c(n1)cccc2

>  <s_sd_BIOSOLVEIT.INFINISEE\_REAGENT3\_SMILES>  (5) 
[R2*]NCc1cc(ccc1)CN(CC)C

>  <s_sd_BIOSOLVEIT.INFINISEE\_SPACE>  (5) 
REALSpace_44bn_2023-08

>  <s_vsw_compound_code>  (5) 
67522

>  <s_vsw_variant>  (5) 
67522-1

>  <r_epik_Charging_Adjusted_Penalty>  (5) 
0.096610053474859903

>  <r_epik_Ionization_Penalty>  (5) 
0.044900000000000002

>  <r_epik_Ionization_Penalty_Charging>  (5) 
0.044900000000000002

>  <r_epik_Ionization_Penalty_Neutral>  (5) 
0

>  <r_epik_State_Penalty>  (5) 
0.051700000000000003

>  <r_i_docking_score>  (5) 
-2.4829029808365202

>  <r_i_glide_ecoul>  (5) 
-6.4395103454589799

>  <r_i_glide_eff_state_penalty>  (5) 
0.051700000000000003

>  <r_i_glide_einternal>  (5) 
11.489871025085399

>  <r_i_glide_emodel>  (5) 
-12.7737663363053

>  <r_i_glide_energy>  (5) 
-17.943564414977999

>  <r_i_glide_erotb>  (5) 
0.86413549129325695

>  <r_i_glide_esite>  (5) 
-0.14624305093381901

>  <r_i_glide_evdw>  (5) 
-11.504054069519

>  <r_i_glide_gscore>  (5) 
-2.53460298083652

>  <r_i_glide_hbond>  (5) 
-0.219342895143292

>  <r_i_glide_ligand_efficiency>  (5) 
-0.073026558259897498

>  <r_i_glide_ligand_efficiency_ln>  (5) 
-0.54854291153643098

>  <r_i_glide_ligand_efficiency_sa>  (5) 
-0.23657769966735601

>  <r_i_glide_lipo>  (5) 
-1.20300327075786

>  <r_i_glide_metal>  (5) 
-0

>  <r_i_glide_rewards>  (5) 
-0.289019999999998

>  <r_lp_Energy>  (5) 
19.150455999999998

>  <r_qp_ACxDN^.5/SA>  (5) 
0.013258199999999999

>  <r_qp_CIQPlogS>  (5) 
-6.0090000000000003

>  <r_qp_EA(eV)>  (5) 
0.64000000000000001

>  <r_qp_FISA>  (5) 
36.802999999999997

>  <r_qp_FOSA>  (5) 
294.18200000000002

>  <r_qp_IP(eV)>  (5) 
8.077

>  <r_qp_Jm>  (5) 
1.1017329308727499

>  <r_qp_PISA>  (5) 
383.68400000000003

>  <r_qp_PSA>  (5) 
50.966999999999999

>  <r_qp_PercentHumanOralAbsorption>  (5) 
100

>  <r_qp_QPPCaco>  (5) 
1106.1089999999999

>  <r_qp_QPPMDCK>  (5) 
610.33799999999997

>  <r_qp_QPlogBB>  (5) 
-0.036999999999999998

>  <r_qp_QPlogHERG>  (5) 
-6.4390000000000001

>  <r_qp_QPlogKhsa>  (5) 
0.68500000000000005

>  <r_qp_QPlogKp>  (5) 
-1.853

>  <r_qp_QPlogPC16>  (5) 
14.718999999999999

>  <r_qp_QPlogPo/w>  (5) 
4.9489999999999998

>  <r_qp_QPlogPoct>  (5) 
22.178000000000001

>  <r_qp_QPlogPw>  (5) 
11.401

>  <r_qp_QPlogS>  (5) 
-3.7639999999999998

>  <r_qp_QPpolrz>  (5) 
47.255000000000003

>  <r_qp_SASA>  (5) 
714.66899999999998

>  <r_qp_SAamideO>  (5) 
0

>  <r_qp_SAfluorine>  (5) 
0

>  <r_qp_WPSA>  (5) 
0

>  <r_qp_accptHB>  (5) 
6.7000000000000002

>  <r_qp_dip^2/V>  (5) 
0.0123613

>  <r_qp_dipole>  (5) 
4.1890000000000001

>  <r_qp_donorHB>  (5) 
2

>  <r_qp_glob>  (5) 
0.85470100000000004

>  <r_qp_mol_MW>  (5) 
455.60199999999998

>  <r_qp_volume>  (5) 
1419.4860000000001

>  <r_sd_BIOSOLVEIT.INFINISEE\_FTREES\_SIMILARITY>  (5) 
0.90100000000000002

>  <r_sd_BIOSOLVEIT.LOGP>  (5) 
4.0350000000000001

>  <r_sd_BIOSOLVEIT.MOLECULAR\_WEIGHT>  (5) 
456.61099999999999

>  <r_sd_BIOSOLVEIT.TPSA>  (5) 
63.509999999999998

>  <i_epik_Tot_Q>  (5) 
2

>  <i_epik_Tot_abs_Q>  (5) 
2

>  <i_f3d_flags>  (5) 
0

>  <i_i_glide_confnum>  (5) 
9

>  <i_i_glide_lignum>  (5) 
757

>  <i_i_glide_posenum>  (5) 
1

>  <i_i_glide_rotatable_bonds>  (5) 
11

>  <i_lp_mmshare_version>  (5) 
65135

>  <i_m_ct_format>  (5) 
2

>  <i_m_source_file_index>  (5) 
2111

>  <i_qp_#NandO>  (5) 
6

>  <i_qp_#acid>  (5) 
0

>  <i_qp_#amide>  (5) 
0

>  <i_qp_#amidine>  (5) 
0

>  <i_qp_#amine>  (5) 
1

>  <i_qp_#in34>  (5) 
0

>  <i_qp_#in56>  (5) 
22

>  <i_qp_#metab>  (5) 
6

>  <i_qp_#nonHatm>  (5) 
34

>  <i_qp_#noncon>  (5) 
0

>  <i_qp_#ringatoms>  (5) 
22

>  <i_qp_#rotor>  (5) 
11

>  <i_qp_#rtvFG>  (5) 
0

>  <i_qp_#stars>  (5) 
0

>  <i_qp_CNS>  (5) 
1

>  <i_qp_HumanOralAbsorption>  (5) 
3

>  <i_qp_RuleOfFive>  (5) 
0

>  <i_qp_RuleOfThree>  (5) 
0

>  <i_sd_BIOSOLVEIT.INFINISEE\_REAGENT1\_NAME>  (5) 
21928106

>  <i_sd_BIOSOLVEIT.INFINISEE\_REAGENT2\_NAME>  (5) 
22360182

>  <i_sd_BIOSOLVEIT.INFINISEE\_REAGENT3\_NAME>  (5) 
21950844

>  <i_sd_BIOSOLVEIT.INFINISEE\_RESULT\_RANK>  (5) 
97916

>  <i_sd_version>  (5) 
0

>  <b_lp_Chiralities_Consistent>  (5) 
1

>  <b_sd_chiral_flag>  (5) 
0

>  <acquisition_id>  (5) 
ATP-ACQ-0005

>  <canonical_id>  (5) 
ATP-HTVS-837D7A211A0E

>  <compound_code>  (5) 
67522

>  <title>  (5) 
m_282030aaa____21928106____22360182____21950844

>  <variant>  (5) 
67522-1

>  <selection_arm>  (5) 
descriptor_diversity

>  <priority>  (5) 
P0

>  <wave>  (5) 
1

>  <source_file>  (5) 
运行/运行/ATP-VSW/ATP-VSW-DOCK_HTVS_1-002_lib.maegz

>  <canonical_smiles>  (5) 
CC[N@@H+](C)Cc1cccc(CNc2nc(NCc3cccc(COC)c3)c3ccccc3[nH+]2)c1

$$$$
ATP-ACQ-0006
     RDKit          3D

 50 53  0  0  0  0  0  0  0  0999 V2000
  199.6335  179.9272  156.7406 Cl  0  0  0  0  0  0  0  0  0  0  0  0
  198.6525  180.0880  155.3166 C   0  0  0  0  0  0  0  0  0  0  0  0
  197.6285  181.0613  155.2136 C   0  0  0  0  0  0  0  0  0  0  0  0
  196.8970  181.2332  154.0938 N   0  0  0  0  0  0  0  0  0  0  0  0
  197.1435  180.4595  153.0254 C   0  0  0  0  0  0  0  0  0  0  0  0
  198.1428  179.4456  153.0428 C   0  0  0  0  0  0  0  0  0  0  0  0
  198.9190  179.2462  154.2204 C   0  0  0  0  0  0  0  0  0  0  0  0
  199.9760  178.2202  154.3306 C   0  0  0  0  0  0  0  0  0  0  0  0
  199.8885  177.1874  155.2947 C   0  0  0  0  0  0  0  0  0  0  0  0
  200.8888  176.2054  155.3855 C   0  0  0  0  0  0  0  0  0  0  0  0
  201.9890  176.2437  154.5085 C   0  0  0  0  0  0  0  0  0  0  0  0
  202.0932  177.2746  153.5549 C   0  0  0  0  0  0  0  0  0  0  0  0
  201.0992  178.2637  153.4797 C   0  0  0  0  0  0  0  0  0  0  0  0
  198.3373  178.6499  151.9011 C   0  0  0  0  0  0  0  0  0  0  0  0
  197.5622  178.8671  150.7540 C   0  0  0  0  0  0  0  0  0  0  0  0
  196.5814  179.8692  150.7282 C   0  0  0  0  0  0  0  0  0  0  0  0
  196.3748  180.6654  151.8613 C   0  0  0  0  0  0  0  0  0  0  0  0
  197.2953  182.0034  156.3387 C   0  0  1  0  0  0  0  0  0  0  0  0
  195.9296  181.8270  156.8597 N   0  0  1  0  0  0  0  0  0  0  0  0
  195.7134  182.2198  158.2785 C   0  0  1  0  0  0  0  0  0  0  0  0
  196.4388  183.5276  158.7092 C   0  0  0  0  0  0  0  0  0  0  0  0
  195.7340  184.7406  158.9966 C   0  0  0  0  0  0  0  0  0  0  0  0
  194.3762  184.7781  159.0040 F   0  0  0  0  0  0  0  0  0  0  0  0
  196.4390  185.9336  159.3106 C   0  0  0  0  0  0  0  0  0  0  0  0
  197.8593  185.9607  159.2863 C   0  0  0  0  0  0  0  0  0  0  0  0
  198.5498  184.7500  159.0172 C   0  0  0  0  0  0  0  0  0  0  0  0
  197.8597  183.5451  158.8204 C   0  0  0  0  0  0  0  0  0  0  0  0
  194.1829  182.2186  158.4937 C   0  0  1  0  0  0  0  0  0  0  0  0
  193.5751  180.9387  158.5112 O   0  0  0  0  0  0  0  0  0  0  0  0
  195.2361  182.2609  156.2521 H   0  0  0  0  0  0  0  0  0  0  0  0
  199.0491  177.1580  155.9780 H   0  0  0  0  0  0  0  0  0  0  0  0
  200.8099  175.4274  156.1305 H   0  0  0  0  0  0  0  0  0  0  0  0
  202.7550  175.4857  154.5698 H   0  0  0  0  0  0  0  0  0  0  0  0
  202.9267  177.3045  152.8707 H   0  0  0  0  0  0  0  0  0  0  0  0
  201.1791  179.0528  152.7467 H   0  0  0  0  0  0  0  0  0  0  0  0
  199.0636  177.8578  151.8973 H   0  0  0  0  0  0  0  0  0  0  0  0
  197.7258  178.2513  149.8957 H   0  0  0  0  0  0  0  0  0  0  0  0
  195.9838  180.0384  149.8517 H   0  0  0  0  0  0  0  0  0  0  0  0
  195.6311  181.4519  151.8791 H   0  0  0  0  0  0  0  0  0  0  0  0
  197.9584  181.7487  157.1583 H   0  0  0  0  0  0  0  0  0  0  0  0
  197.4805  183.0324  156.0327 H   0  0  0  0  0  0  0  0  0  0  0  0
  196.1456  181.4418  158.9137 H   0  0  0  0  0  0  0  0  0  0  0  0
  195.8548  186.8193  159.5825 H   0  0  0  0  0  0  0  0  0  0  0  0
  198.3805  186.8974  159.5163 H   0  0  0  0  0  0  0  0  0  0  0  0
  199.6264  184.7894  158.9480 H   0  0  0  0  0  0  0  0  0  0  0  0
  198.4706  182.6506  158.6716 H   0  0  0  0  0  0  0  0  0  0  0  0
  193.9689  182.6301  159.4680 H   0  0  0  0  0  0  0  0  0  0  0  0
  193.6753  182.8623  157.7670 H   0  0  0  0  0  0  0  0  0  0  0  0
  194.1627  180.2747  158.1437 H   0  0  0  0  0  0  0  0  0  0  0  0
  195.7394  180.8249  156.8229 H   0  0  0  0  0  0  0  0  0  0  0  0
  1  2  1  0
  2  3  1  0
  2  7  2  0
  3  4  2  0
  3 18  1  0
  4  5  1  0
  5  6  1  0
  5 17  2  0
  6  7  1  0
  6 14  2  0
  7  8  1  0
  8  9  2  0
  8 13  1  0
  9 10  1  0
  9 31  1  0
 10 11  2  0
 10 32  1  0
 11 12  1  0
 11 33  1  0
 12 13  2  0
 12 34  1  0
 13 35  1  0
 14 15  1  0
 14 36  1  0
 15 16  2  0
 15 37  1  0
 16 17  1  0
 16 38  1  0
 17 39  1  0
 18 19  1  0
 18 40  1  1
 18 41  1  0
 19 20  1  0
 19 30  1  6
 19 50  1  0
 20 21  1  0
 20 28  1  0
 20 42  1  1
 21 22  1  0
 21 27  2  0
 22 23  1  0
 22 24  2  0
 24 25  1  0
 24 43  1  0
 25 26  2  0
 25 44  1  0
 26 27  1  0
 26 45  1  0
 27 46  1  0
 28 29  1  0
 28 47  1  1
 28 48  1  0
 29 49  1  0
M  CHG  1  19   1
M  END
>  <s_epik_cmdline>  (6) 
J2VwaWtfcHl0aG9uJywgJy1waCcsICc3LjAwMDAwMCcsICctcGh0JywgJzIuMDAwMDAwJywgJy1tcycsICcxNicsICctdG4nLCAnOCcsICctbWEnLCAnMjAwJywgJy1pbWFlJywgJzxpbmZpbGUubWFlPicsICctb21hZScsICc8b3V0ZmlsZS5tYWU+Jw==

>  <s_epik_input>  (6) 
W2NIXTFbY0hdW2NIXVtjSF1bY0hdYzEtYyhjKGMyMylbY0hdW2NIXVtjSF1bY0hdMyljKENsKWMobjIpW0NIMl1bTkhdW0NASF0oW0NIMl1bT0hdKWM0YyhGKVtjSF1bY0hdW2NIXVtjSF00

>  <s_i_glide_gridfile>  (6) 
ATP-Grid

>  <s_lp_Force_Field>  (6) 
OPLS_2005

>  <s_lp_Variant>  (6) 
m_2230bbb____8627194____7471132-2

>  <s_lp_label>  (6) 
1102_sdstereoexpander_2_neutralizer_1_epik_1_stereoizer_1

>  <s_m_source_file>  (6) 
ATP-VSW-LIGPREP-002-in.maegz

>  <s_sd_BIOSOLVEIT.INFINISEE\_QUERY\_NAME>  (6) 
Ref-Lig

>  <s_sd_BIOSOLVEIT.INFINISEE\_QUERY\_SMILES>  (6) 
S(c1nc2c(cc1C[NH2+]Cc3ccc(cc3)C[NH+](C)C)cccc2)Cc4ccccc4

>  <s_sd_BIOSOLVEIT.INFINISEE\_REACTION\_NAME>  (6) 
m_2230bbb

>  <s_sd_BIOSOLVEIT.INFINISEE\_REAGENT1\_SMILES>  (6) 
[R1*]NC(c1c(F)cccc1)CO

>  <s_sd_BIOSOLVEIT.INFINISEE\_REAGENT2\_SMILES>  (6) 
[R1*]Cc1nc2c(c(c1Cl)c3ccccc3)cccc2

>  <s_sd_BIOSOLVEIT.INFINISEE\_SPACE>  (6) 
REALSpace_44bn_2023-08

>  <s_vsw_compound_code>  (6) 
35234

>  <s_vsw_variant>  (6) 
35234-2

>  <r_epik_Charging_Adjusted_Penalty>  (6) 
0.47872975795834399

>  <r_epik_Ionization_Penalty>  (6) 
0.2394

>  <r_epik_Ionization_Penalty_Charging>  (6) 
0.2394

>  <r_epik_Ionization_Penalty_Neutral>  (6) 
0

>  <r_epik_State_Penalty>  (6) 
0.2394

>  <r_i_docking_score>  (6) 
-5.6346268537964397

>  <r_i_glide_ecoul>  (6) 
-12.2735805511475

>  <r_i_glide_eff_state_penalty>  (6) 
0.2394

>  <r_i_glide_einternal>  (6) 
17.056259155273398

>  <r_i_glide_emodel>  (6) 
-62.932999187377398

>  <r_i_glide_energy>  (6) 
-46.013380050659201

>  <r_i_glide_erotb>  (6) 
0.59132777380499502

>  <r_i_glide_esite>  (6) 
-0.10000000000000001

>  <r_i_glide_evdw>  (6) 
-33.739799499511697

>  <r_i_glide_gscore>  (6) 
-5.8740268537964404

>  <r_i_glide_hbond>  (6) 
-0.55076729000575897

>  <r_i_glide_ligand_efficiency>  (6) 
-0.194297477717119

>  <r_i_glide_ligand_efficiency_ln>  (6) 
-1.29018666771055

>  <r_i_glide_ligand_efficiency_sa>  (6) 
-0.59694340930859602

>  <r_i_glide_lipo>  (6) 
-1.4205884262155399

>  <r_i_glide_metal>  (6) 
-0

>  <r_i_glide_rewards>  (6) 
-0.86597185373243402

>  <r_lp_Energy>  (6) 
19.453232

>  <r_qp_ACxDN^.5/SA>  (6) 
0.0086514999999999995

>  <r_qp_CIQPlogS>  (6) 
-5.9820000000000002

>  <r_qp_EA(eV)>  (6) 
1.0409999999999999

>  <r_qp_FISA>  (6) 
70.632000000000005

>  <r_qp_FOSA>  (6) 
76.756

>  <r_qp_IP(eV)>  (6) 
8.8979999999999997

>  <r_qp_Jm>  (6) 
0.0129861005336794

>  <r_qp_PISA>  (6) 
481.71600000000001

>  <r_qp_PSA>  (6) 
45.802999999999997

>  <r_qp_PercentHumanOralAbsorption>  (6) 
100

>  <r_qp_QPPCaco>  (6) 
528.43899999999996

>  <r_qp_QPPMDCK>  (6) 
566.91600000000005

>  <r_qp_QPlogBB>  (6) 
-0.033000000000000002

>  <r_qp_QPlogHERG>  (6) 
-7.5999999999999996

>  <r_qp_QPlogKhsa>  (6) 
0.79500000000000004

>  <r_qp_QPlogKp>  (6) 
-2.5150000000000001

>  <r_qp_QPlogPC16>  (6) 
14.035

>  <r_qp_QPlogPo/w>  (6) 
4.8730000000000002

>  <r_qp_QPlogPoct>  (6) 
20.106000000000002

>  <r_qp_QPlogPw>  (6) 
10.670999999999999

>  <r_qp_QPlogS>  (6) 
-4.9809999999999999

>  <r_qp_QPpolrz>  (6) 
43.469000000000001

>  <r_qp_SASA>  (6) 
686.55200000000002

>  <r_qp_SAamideO>  (6) 
0

>  <r_qp_SAfluorine>  (6) 
32.829000000000001

>  <r_qp_WPSA>  (6) 
57.448

>  <r_qp_accptHB>  (6) 
4.2000000000000002

>  <r_qp_dip^2/V>  (6) 
0.020397100000000001

>  <r_qp_dipole>  (6) 
5.024

>  <r_qp_donorHB>  (6) 
2

>  <r_qp_glob>  (6) 
0.81185779999999996

>  <r_qp_mol_MW>  (6) 
406.88600000000002

>  <r_qp_volume>  (6) 
1237.3209999999999

>  <r_sd_BIOSOLVEIT.INFINISEE\_FTREES\_SIMILARITY>  (6) 
0.91300000000000003

>  <r_sd_BIOSOLVEIT.LOGP>  (6) 
4.4912999999999998

>  <r_sd_BIOSOLVEIT.MOLECULAR\_WEIGHT>  (6) 
407.89400000000001

>  <r_sd_BIOSOLVEIT.TPSA>  (6) 
49.729999999999997

>  <i_epik_Tot_Q>  (6) 
1

>  <i_epik_Tot_abs_Q>  (6) 
1

>  <i_f3d_flags>  (6) 
0

>  <i_i_glide_confnum>  (6) 
5

>  <i_i_glide_lignum>  (6) 
365

>  <i_i_glide_posenum>  (6) 
9

>  <i_i_glide_rotatable_bonds>  (6) 
7

>  <i_lp_mmshare_version>  (6) 
65135

>  <i_m_ct_format>  (6) 
2

>  <i_m_source_file_index>  (6) 
1102

>  <i_qp_#NandO>  (6) 
3

>  <i_qp_#acid>  (6) 
0

>  <i_qp_#amide>  (6) 
0

>  <i_qp_#amidine>  (6) 
0

>  <i_qp_#amine>  (6) 
1

>  <i_qp_#in34>  (6) 
0

>  <i_qp_#in56>  (6) 
22

>  <i_qp_#metab>  (6) 
5

>  <i_qp_#nonHatm>  (6) 
29

>  <i_qp_#noncon>  (6) 
0

>  <i_qp_#ringatoms>  (6) 
22

>  <i_qp_#rotor>  (6) 
7

>  <i_qp_#rtvFG>  (6) 
0

>  <i_qp_#stars>  (6) 
1

>  <i_qp_CNS>  (6) 
1

>  <i_qp_HumanOralAbsorption>  (6) 
3

>  <i_qp_RuleOfFive>  (6) 
0

>  <i_qp_RuleOfThree>  (6) 
0

>  <i_sd_BIOSOLVEIT.INFINISEE\_REAGENT1\_NAME>  (6) 
8627194

>  <i_sd_BIOSOLVEIT.INFINISEE\_REAGENT2\_NAME>  (6) 
7471132

>  <i_sd_BIOSOLVEIT.INFINISEE\_RESULT\_RANK>  (6) 
33417

>  <i_sd_version>  (6) 
0

>  <b_lp_Chiralities_Consistent>  (6) 
1

>  <b_sd_chiral_flag>  (6) 
0

>  <acquisition_id>  (6) 
ATP-ACQ-0006

>  <canonical_id>  (6) 
ATP-HTVS-45A004EDB829

>  <compound_code>  (6) 
35234

>  <title>  (6) 
m_2230bbb____8627194____7471132

>  <variant>  (6) 
35234-2

>  <selection_arm>  (6) 
score_calibration

>  <priority>  (6) 
P0

>  <wave>  (6) 
1

>  <source_file>  (6) 
运行/运行/ATP-VSW/ATP-VSW-DOCK_HTVS_1-002_lib.maegz

>  <canonical_smiles>  (6) 
OC[C@@H]([NH2+]Cc1nc2ccccc2c(-c2ccccc2)c1Cl)c1ccccc1F

$$$$
ATP-ACQ-0007
     RDKit          3D

 55 58  0  0  0  0  0  0  0  0999 V2000
  193.1737  183.8352  159.2803 F   0  0  0  0  0  0  0  0  0  0  0  0
  194.3847  184.3889  159.5336 C   0  0  0  0  0  0  0  0  0  0  0  0
  195.5654  183.7997  159.0135 C   0  0  0  0  0  0  0  0  0  0  0  0
  196.8096  184.4244  159.2768 C   0  0  0  0  0  0  0  0  0  0  0  0
  196.8690  185.6197  160.0201 C   0  0  0  0  0  0  0  0  0  0  0  0
  195.6951  186.1896  160.5389 C   0  0  0  0  0  0  0  0  0  0  0  0
  195.7565  187.3192  161.2825 F   0  0  0  0  0  0  0  0  0  0  0  0
  194.4594  185.5650  160.3094 C   0  0  0  0  0  0  0  0  0  0  0  0
  195.4678  182.5161  158.1729 C   0  0  2  0  0  0  0  0  0  0  0  0
  194.9741  181.4382  158.9415 O   0  0  0  0  0  0  0  0  0  0  0  0
  196.8276  182.1000  157.5785 C   0  0  1  0  0  0  0  0  0  0  0  0
  196.7228  181.0797  156.5247 N   0  0  1  0  0  0  0  0  0  0  0  0
  198.0214  180.8118  155.8694 C   0  0  1  0  0  0  0  0  0  0  0  0
  197.8018  180.2503  154.5001 C   0  0  0  0  0  0  0  0  0  0  0  0
  198.4626  179.1767  153.8274 C   0  0  0  0  0  0  0  0  0  0  0  0
  198.0374  179.0457  152.5733 N   0  0  0  0  0  0  0  0  0  0  0  0
  197.1147  180.0164  152.4025 N   0  0  0  0  0  0  0  0  0  0  0  0
  196.9321  180.7411  153.5568 C   0  0  0  0  0  0  0  0  0  0  0  0
  196.4821  180.2130  151.1039 C   0  0  1  0  0  0  0  0  0  0  0  0
  196.9373  181.5242  150.4857 C   0  0  0  0  0  0  0  0  0  0  0  0
  196.3627  182.7460  150.8997 C   0  0  0  0  0  0  0  0  0  0  0  0
  196.7862  183.9585  150.3217 C   0  0  0  0  0  0  0  0  0  0  0  0
  197.7858  183.9581  149.3313 C   0  0  0  0  0  0  0  0  0  0  0  0
  198.3671  182.7438  148.9199 C   0  0  0  0  0  0  0  0  0  0  0  0
  197.9464  181.5292  149.4977 C   0  0  0  0  0  0  0  0  0  0  0  0
  199.5079  178.2550  154.3127 C   0  0  0  0  0  0  0  0  0  0  0  0
  200.4792  177.7388  153.4176 C   0  0  0  0  0  0  0  0  0  0  0  0
  201.4806  176.8516  153.8757 C   0  0  0  0  0  0  0  0  0  0  0  0
  201.5364  176.4968  155.2383 C   0  0  0  0  0  0  0  0  0  0  0  0
  200.5716  177.0019  156.1313 C   0  0  0  0  0  0  0  0  0  0  0  0
  199.5455  177.8527  155.6671 C   0  0  0  0  0  0  0  0  0  0  0  0
  196.3354  180.2183  156.9111 H   0  0  0  0  0  0  0  0  0  0  0  0
  197.7516  184.0313  158.9216 H   0  0  0  0  0  0  0  0  0  0  0  0
  197.8258  186.0869  160.1867 H   0  0  0  0  0  0  0  0  0  0  0  0
  193.5562  186.0039  160.7002 H   0  0  0  0  0  0  0  0  0  0  0  0
  194.7700  182.7129  157.3534 H   0  0  0  0  0  0  0  0  0  0  0  0
  195.1232  180.5979  158.5231 H   0  0  0  0  0  0  0  0  0  0  0  0
  197.2931  182.9623  157.0967 H   0  0  0  0  0  0  0  0  0  0  0  0
  197.5012  181.7489  158.3619 H   0  0  0  0  0  0  0  0  0  0  0  0
  198.6042  181.7345  155.7767 H   0  0  0  0  0  0  0  0  0  0  0  0
  198.5841  180.1532  156.5535 H   0  0  0  0  0  0  0  0  0  0  0  0
  196.2298  181.5604  153.5889 H   0  0  0  0  0  0  0  0  0  0  0  0
  196.7236  179.3750  150.4470 H   0  0  0  0  0  0  0  0  0  0  0  0
  195.4021  180.2197  151.2338 H   0  0  0  0  0  0  0  0  0  0  0  0
  195.6015  182.7637  151.6660 H   0  0  0  0  0  0  0  0  0  0  0  0
  196.3474  184.8909  150.6404 H   0  0  0  0  0  0  0  0  0  0  0  0
  198.1063  184.8889  148.8877 H   0  0  0  0  0  0  0  0  0  0  0  0
  199.1373  182.7430  148.1618 H   0  0  0  0  0  0  0  0  0  0  0  0
  198.4046  180.6029  149.1801 H   0  0  0  0  0  0  0  0  0  0  0  0
  200.4522  177.9971  152.3665 H   0  0  0  0  0  0  0  0  0  0  0  0
  202.2017  176.4438  153.1752 H   0  0  0  0  0  0  0  0  0  0  0  0
  202.3041  175.8211  155.5951 H   0  0  0  0  0  0  0  0  0  0  0  0
  200.6007  176.7302  157.1730 H   0  0  0  0  0  0  0  0  0  0  0  0
  198.7834  178.1812  156.3672 H   0  0  0  0  0  0  0  0  0  0  0  0
  196.0670  181.4474  155.8456 H   0  0  0  0  0  0  0  0  0  0  0  0
  1  2  1  0
  2  3  2  0
  2  8  1  0
  3  4  1  0
  3  9  1  0
  4  5  2  0
  4 33  1  0
  5  6  1  0
  5 34  1  0
  6  7  1  0
  6  8  2  0
  8 35  1  0
  9 10  1  0
  9 11  1  0
  9 36  1  6
 10 37  1  0
 11 12  1  0
 11 38  1  6
 11 39  1  0
 12 13  1  0
 12 32  1  1
 12 55  1  0
 13 14  1  0
 13 40  1  6
 13 41  1  0
 14 15  1  0
 14 18  2  0
 15 16  2  0
 15 26  1  0
 16 17  1  0
 17 18  1  0
 17 19  1  0
 18 42  1  0
 19 20  1  0
 19 43  1  6
 19 44  1  0
 20 21  2  0
 20 25  1  0
 21 22  1  0
 21 45  1  0
 22 23  2  0
 22 46  1  0
 23 24  1  0
 23 47  1  0
 24 25  2  0
 24 48  1  0
 25 49  1  0
 26 27  2  0
 26 31  1  0
 27 28  1  0
 27 50  1  0
 28 29  2  0
 28 51  1  0
 29 30  1  0
 29 52  1  0
 30 31  2  0
 30 53  1  0
 31 54  1  0
M  CHG  1  12   1
M  END
>  <s_epik_cmdline>  (7) 
J2VwaWtfcHl0aG9uJywgJy1waCcsICc3LjAwMDAwMCcsICctcGh0JywgJzIuMDAwMDAwJywgJy1tcycsICcxNicsICctdG4nLCAnOCcsICctbWEnLCAnMjAwJywgJy1pbWFlJywgJzxpbmZpbGUubWFlPicsICctb21hZScsICc8b3V0ZmlsZS5tYWU+Jw==

>  <s_epik_input>  (7) 
RmMoW2NIXTEpW2NIXVtjSF1jKGMxRilbQ0BIXShbT0hdKVtDSDJdW05IXVtDSDJdYzJjKC1jM1tjSF1bY0hdW2NIXVtjSF1bY0hdMylubihbY0hdMilbQ0gyXWM0W2NIXVtjSF1bY0hdW2NIXVtjSF00

>  <s_i_glide_gridfile>  (7) 
ATP-Grid

>  <s_lp_Force_Field>  (7) 
OPLS_2005

>  <s_lp_Variant>  (7) 
m_270004bbb____16500566____7548060-2

>  <s_lp_label>  (7) 
2072_sdstereoexpander_2_neutralizer_1_epik_1_stereoizer_1

>  <s_m_source_file>  (7) 
ATP-VSW-LIGPREP-001-in.maegz

>  <s_sd_BIOSOLVEIT.INFINISEE\_QUERY\_NAME>  (7) 
Ref-Lig

>  <s_sd_BIOSOLVEIT.INFINISEE\_QUERY\_SMILES>  (7) 
S(c1nc2c(cc1C[NH2+]Cc3ccc(cc3)C[NH+](C)C)cccc2)Cc4ccccc4

>  <s_sd_BIOSOLVEIT.INFINISEE\_REACTION\_NAME>  (7) 
m_270004bbb

>  <s_sd_BIOSOLVEIT.INFINISEE\_REAGENT1\_SMILES>  (7) 
[R1*]NCC(O)c1c(F)cc(F)cc1

>  <s_sd_BIOSOLVEIT.INFINISEE\_REAGENT2\_SMILES>  (7) 
[R1*]CC=1C(=NN(C1)Cc2ccccc2)c3ccccc3

>  <s_sd_BIOSOLVEIT.INFINISEE\_SPACE>  (7) 
REALSpace_44bn_2023-08

>  <s_vsw_compound_code>  (7) 
66273

>  <s_vsw_variant>  (7) 
66273-2

>  <r_epik_Charging_Adjusted_Penalty>  (7) 
0.14210174952166199

>  <r_epik_Ionization_Penalty>  (7) 
0.071099999999999997

>  <r_epik_Ionization_Penalty_Charging>  (7) 
0.071099999999999997

>  <r_epik_Ionization_Penalty_Neutral>  (7) 
0

>  <r_epik_State_Penalty>  (7) 
0.071099999999999997

>  <r_i_docking_score>  (7) 
-6.7221722658838203

>  <r_i_glide_ecoul>  (7) 
-15.335029602050801

>  <r_i_glide_eff_state_penalty>  (7) 
0.071099999999999997

>  <r_i_glide_einternal>  (7) 
6.1641049385070801

>  <r_i_glide_emodel>  (7) 
-78.007283716339998

>  <r_i_glide_energy>  (7) 
-50.154636383056598

>  <r_i_glide_erotb>  (7) 
0.78365562477255302

>  <r_i_glide_esite>  (7) 
-0.128389902488562

>  <r_i_glide_evdw>  (7) 
-34.819606781005902

>  <r_i_glide_gscore>  (7) 
-6.7932722658838198

>  <r_i_glide_hbond>  (7) 
-0.35999999999999999

>  <r_i_glide_ligand_efficiency>  (7) 
-0.21684426664141301

>  <r_i_glide_ligand_efficiency_ln>  (7) 
-1.5160558557959001

>  <r_i_glide_ligand_efficiency_sa>  (7) 
-0.681190383029604

>  <r_i_glide_lipo>  (7) 
-1.9347941619768101

>  <r_i_glide_metal>  (7) 
-0

>  <r_i_glide_rewards>  (7) 
-1.11250904683309

>  <r_lp_Energy>  (7) 
18.847131000000001

>  <r_lp_tautomer_probability>  (7) 
1

>  <r_qp_ACxDN^.5/SA>  (7) 
0.0098610999999999994

>  <r_qp_CIQPlogS>  (7) 
-6.1079999999999997

>  <r_qp_EA(eV)>  (7) 
0.58799999999999997

>  <r_qp_FISA>  (7) 
55.247

>  <r_qp_FOSA>  (7) 
113.124

>  <r_qp_IP(eV)>  (7) 
8.7300000000000004

>  <r_qp_Jm>  (7) 
0.088994429101352607

>  <r_qp_PISA>  (7) 
450.80500000000001

>  <r_qp_PSA>  (7) 
48.171999999999997

>  <r_qp_PercentHumanOralAbsorption>  (7) 
100

>  <r_qp_QPPCaco>  (7) 
739.42200000000003

>  <r_qp_QPPMDCK>  (7) 
788.99599999999998

>  <r_qp_QPlogBB>  (7) 
0.097000000000000003

>  <r_qp_QPlogHERG>  (7) 
-6.9359999999999999

>  <r_qp_QPlogKhsa>  (7) 
0.78200000000000003

>  <r_qp_QPlogKp>  (7) 
-2.2440000000000002

>  <r_qp_QPlogPC16>  (7) 
13.715999999999999

>  <r_qp_QPlogPo/w>  (7) 
4.992

>  <r_qp_QPlogPoct>  (7) 
20.597999999999999

>  <r_qp_QPlogPw>  (7) 
10.597

>  <r_qp_QPlogS>  (7) 
-4.4290000000000003

>  <r_qp_QPpolrz>  (7) 
44.055

>  <r_qp_SASA>  (7) 
674.04300000000001

>  <r_qp_SAamideO>  (7) 
0

>  <r_qp_SAfluorine>  (7) 
54.866

>  <r_qp_WPSA>  (7) 
54.866

>  <r_qp_accptHB>  (7) 
4.7000000000000002

>  <r_qp_dip^2/V>  (7) 
0.023676699999999998

>  <r_qp_dipole>  (7) 
5.4950000000000001

>  <r_qp_donorHB>  (7) 
2

>  <r_qp_glob>  (7) 
0.84379780000000004

>  <r_qp_mol_MW>  (7) 
419.47300000000001

>  <r_qp_volume>  (7) 
1275.385

>  <r_sd_BIOSOLVEIT.INFINISEE\_FTREES\_SIMILARITY>  (7) 
0.90100000000000002

>  <r_sd_BIOSOLVEIT.LOGP>  (7) 
3.6736

>  <r_sd_BIOSOLVEIT.MOLECULAR\_WEIGHT>  (7) 
420.48099999999999

>  <r_sd_BIOSOLVEIT.TPSA>  (7) 
54.659999999999997

>  <i_epik_Tot_Q>  (7) 
1

>  <i_epik_Tot_abs_Q>  (7) 
1

>  <i_f3d_flags>  (7) 
0

>  <i_i_glide_confnum>  (7) 
7

>  <i_i_glide_lignum>  (7) 
645

>  <i_i_glide_posenum>  (7) 
11

>  <i_i_glide_rotatable_bonds>  (7) 
9

>  <i_lp_mmshare_version>  (7) 
65135

>  <i_m_ct_format>  (7) 
2

>  <i_m_source_file_index>  (7) 
2072

>  <i_qp_#NandO>  (7) 
4

>  <i_qp_#acid>  (7) 
0

>  <i_qp_#amide>  (7) 
0

>  <i_qp_#amidine>  (7) 
0

>  <i_qp_#amine>  (7) 
1

>  <i_qp_#in34>  (7) 
0

>  <i_qp_#in56>  (7) 
23

>  <i_qp_#metab>  (7) 
4

>  <i_qp_#nonHatm>  (7) 
31

>  <i_qp_#noncon>  (7) 
0

>  <i_qp_#ringatoms>  (7) 
23

>  <i_qp_#rotor>  (7) 
8

>  <i_qp_#rtvFG>  (7) 
0

>  <i_qp_#stars>  (7) 
1

>  <i_qp_CNS>  (7) 
1

>  <i_qp_HumanOralAbsorption>  (7) 
3

>  <i_qp_RuleOfFive>  (7) 
0

>  <i_qp_RuleOfThree>  (7) 
0

>  <i_sd_BIOSOLVEIT.INFINISEE\_REAGENT1\_NAME>  (7) 
16500566

>  <i_sd_BIOSOLVEIT.INFINISEE\_REAGENT2\_NAME>  (7) 
7548060

>  <i_sd_BIOSOLVEIT.INFINISEE\_RESULT\_RANK>  (7) 
95448

>  <i_sd_version>  (7) 
0

>  <b_lp_Chiralities_Consistent>  (7) 
1

>  <b_sd_chiral_flag>  (7) 
0

>  <acquisition_id>  (7) 
ATP-ACQ-0007

>  <canonical_id>  (7) 
ATP-HTVS-D6043925B579

>  <compound_code>  (7) 
66273

>  <title>  (7) 
m_270004bbb____16500566____7548060

>  <variant>  (7) 
66273-2

>  <selection_arm>  (7) 
exploitation

>  <priority>  (7) 
P0

>  <wave>  (7) 
1

>  <source_file>  (7) 
运行/运行/ATP-VSW/ATP-VSW-DOCK_HTVS_1-001_lib/ATP-VSW-DOCK_HTVS_1-001_lib

>  <canonical_smiles>  (7) 
O[C@H](C[NH2+]Cc1cn(Cc2ccccc2)nc1-c1ccccc1)c1ccc(F)cc1F

$$$$
ATP-ACQ-0008
     RDKit          3D

 45 48  0  0  0  0  0  0  0  0999 V2000
  198.9642  186.1885  153.9333 Cl  0  0  0  0  0  0  0  0  0  0  0  0
  199.4172  187.8125  154.3434 C   0  0  0  0  0  0  0  0  0  0  0  0
  199.6577  188.2399  155.6797 C   0  0  0  0  0  0  0  0  0  0  0  0
  200.0597  189.5764  155.9041 C   0  0  0  0  0  0  0  0  0  0  0  0
  200.2159  190.4750  154.8302 C   0  0  0  0  0  0  0  0  0  0  0  0
  199.9616  190.0456  153.5143 C   0  0  0  0  0  0  0  0  0  0  0  0
  200.1077  190.9120  152.4855 F   0  0  0  0  0  0  0  0  0  0  0  0
  199.5611  188.7177  153.2766 C   0  0  0  0  0  0  0  0  0  0  0  0
  199.5239  187.3153  156.8878 C   0  0  1  0  0  0  0  0  0  0  0  0
  198.1580  186.8769  157.1940 N   0  0  0  0  0  0  0  0  0  0  0  0
  198.1803  185.7535  158.1600 C   0  0  2  0  0  0  0  0  0  0  0  0
  198.8868  184.5258  157.5702 C   0  0  0  0  0  0  0  0  0  0  0  0
  199.7711  183.7243  158.3390 C   0  0  0  0  0  0  0  0  0  0  0  0
  200.0093  184.0169  159.6418 F   0  0  0  0  0  0  0  0  0  0  0  0
  200.3987  182.6071  157.7434 C   0  0  0  0  0  0  0  0  0  0  0  0
  200.1523  182.2852  156.3963 C   0  0  0  0  0  0  0  0  0  0  0  0
  199.2521  183.0625  155.6443 C   0  0  0  0  0  0  0  0  0  0  0  0
  198.5954  184.1518  156.2432 C   0  0  0  0  0  0  0  0  0  0  0  0
  196.7971  185.3509  158.6967 C   0  0  0  0  0  0  0  0  0  0  0  0
  196.0901  186.2299  159.5653 C   0  0  0  0  0  0  0  0  0  0  0  0
  196.6012  187.5089  159.9170 N   0  0  0  0  0  0  0  0  0  0  0  0
  197.2206  188.3767  159.0939 C   0  0  0  0  0  0  0  0  0  0  0  0
  197.6662  189.4380  159.5001 O   0  0  0  0  0  0  0  0  0  0  0  0
  197.2973  188.0331  157.5946 C   0  0  1  0  0  0  0  0  0  0  0  0
  194.8695  185.8200  160.1367 C   0  0  0  0  0  0  0  0  0  0  0  0
  194.3112  184.5677  159.8153 C   0  0  0  0  0  0  0  0  0  0  0  0
  194.9934  183.6971  158.9555 C   0  0  0  0  0  0  0  0  0  0  0  0
  194.3373  182.1456  158.5889 Cl  0  0  0  0  0  0  0  0  0  0  0  0
  196.2217  184.0852  158.4035 C   0  0  0  0  0  0  0  0  0  0  0  0
  200.2545  189.9121  156.9124 H   0  0  0  0  0  0  0  0  0  0  0  0
  200.5332  191.4961  155.0211 H   0  0  0  0  0  0  0  0  0  0  0  0
  199.3678  188.3878  152.2672 H   0  0  0  0  0  0  0  0  0  0  0  0
  200.1902  186.4811  156.6726 H   0  0  0  0  0  0  0  0  0  0  0  0
  199.9499  187.7912  157.7707 H   0  0  0  0  0  0  0  0  0  0  0  0
  198.7632  186.0781  159.0242 H   0  0  0  0  0  0  0  0  0  0  0  0
  201.0483  181.9814  158.3391 H   0  0  0  0  0  0  0  0  0  0  0  0
  200.6195  181.4292  155.9432 H   0  0  0  0  0  0  0  0  0  0  0  0
  199.0397  182.8280  154.6121 H   0  0  0  0  0  0  0  0  0  0  0  0
  197.8629  184.7131  155.6741 H   0  0  0  0  0  0  0  0  0  0  0  0
  196.4225  187.8442  160.8536 H   0  0  0  0  0  0  0  0  0  0  0  0
  197.5629  188.9454  157.0527 H   0  0  0  0  0  0  0  0  0  0  0  0
  196.2832  187.8118  157.2588 H   0  0  0  0  0  0  0  0  0  0  0  0
  194.3309  186.4758  160.8058 H   0  0  0  0  0  0  0  0  0  0  0  0
  193.3678  184.2612  160.2276 H   0  0  0  0  0  0  0  0  0  0  0  0
  196.6902  183.3538  157.7623 H   0  0  0  0  0  0  0  0  0  0  0  0
  1  2  1  0
  2  3  2  0
  2  8  1  0
  3  4  1  0
  3  9  1  0
  4  5  2  0
  4 30  1  0
  5  6  1  0
  5 31  1  0
  6  7  1  0
  6  8  2  0
  8 32  1  0
  9 10  1  0
  9 33  1  6
  9 34  1  0
 10 11  1  0
 10 24  1  0
 11 12  1  0
 11 19  1  0
 11 35  1  1
 12 13  1  0
 12 18  2  0
 13 14  1  0
 13 15  2  0
 15 16  1  0
 15 36  1  0
 16 17  2  0
 16 37  1  0
 17 18  1  0
 17 38  1  0
 18 39  1  0
 19 20  2  0
 19 29  1  0
 20 21  1  0
 20 25  1  0
 21 22  1  0
 21 40  1  0
 22 23  2  0
 22 24  1  0
 24 41  1  6
 24 42  1  0
 25 26  2  0
 25 43  1  0
 26 27  1  0
 26 44  1  0
 27 28  1  0
 27 29  2  0
 29 45  1  0
M  END
>  <s_epik_cmdline>  (8) 
J2VwaWtfcHl0aG9uJywgJy1waCcsICc3LjAwMDAwMCcsICctcGh0JywgJzIuMDAwMDAwJywgJy1tcycsICcxNicsICctdG4nLCAnOCcsICctbWEnLCAnMjAwJywgJy1pbWFlJywgJzxpbmZpbGUubWFlPicsICctb21hZScsICc8b3V0ZmlsZS5tYWU+Jw==

>  <s_epik_input>  (8) 
W2NIXTFbY0hdW2NIXVtjSF1jKEYpYzFbQ0BIXTJOKFtDSDJdYyhjM0NsKVtjSF1bY0hdYyhGKVtjSF0zKVtDSDJdQyg9TylbTkhdYyhjMjQpW2NIXVtjSF1jKENsKVtjSF00

>  <s_i_glide_gridfile>  (8) 
ATP-Grid

>  <s_lp_Force_Field>  (8) 
OPLS_2005

>  <s_lp_Variant>  (8) 
m_2230bdc____14772912____666388-2

>  <s_lp_label>  (8) 
1556_sdstereoexpander_3_neutralizer_1_epik_1_stereoizer_1

>  <s_m_source_file>  (8) 
ATP-VSW-LIGPREP-001-in.maegz

>  <s_sd_BIOSOLVEIT.INFINISEE\_QUERY\_NAME>  (8) 
Ref-Lig

>  <s_sd_BIOSOLVEIT.INFINISEE\_QUERY\_SMILES>  (8) 
S(c1nc2c(cc1C[NH2+]Cc3ccc(cc3)C[NH+](C)C)cccc2)Cc4ccccc4

>  <s_sd_BIOSOLVEIT.INFINISEE\_REACTION\_NAME>  (8) 
m_2230bdc

>  <s_sd_BIOSOLVEIT.INFINISEE\_REAGENT1\_SMILES>  (8) 
[R1*]N1C(c2c(F)cccc2)c3c(NC(=O)C1)ccc(Cl)c3

>  <s_sd_BIOSOLVEIT.INFINISEE\_REAGENT2\_SMILES>  (8) 
[R1*]Cc1c(Cl)cc(F)cc1

>  <s_sd_BIOSOLVEIT.INFINISEE\_SPACE>  (8) 
REALSpace_44bn_2023-08

>  <s_vsw_compound_code>  (8) 
49761

>  <s_vsw_variant>  (8) 
49761-2

>  <r_epik_Charging_Adjusted_Penalty>  (8) 
0.0045720550350946999

>  <r_epik_Ionization_Penalty>  (8) 
0.0045999999999999999

>  <r_epik_Ionization_Penalty_Charging>  (8) 
0

>  <r_epik_Ionization_Penalty_Neutral>  (8) 
0.0045999999999999999

>  <r_epik_State_Penalty>  (8) 
0.0045999999999999999

>  <r_i_docking_score>  (8) 
-1.47586439099717

>  <r_i_glide_ecoul>  (8) 
1.4484279155731199

>  <r_i_glide_eff_state_penalty>  (8) 
0.0045999999999999999

>  <r_i_glide_einternal>  (8) 
0.026060214266180999

>  <r_i_glide_emodel>  (8) 
-33.2876245176287

>  <r_i_glide_energy>  (8) 
-30.6318409442902

>  <r_i_glide_erotb>  (8) 
0.318103201506231

>  <r_i_glide_esite>  (8) 
0

>  <r_i_glide_evdw>  (8) 
-32.080268859863303

>  <r_i_glide_gscore>  (8) 
-1.48046439099717

>  <r_i_glide_hbond>  (8) 
0

>  <r_i_glide_ligand_efficiency>  (8) 
-0.050891875551626498

>  <r_i_glide_ligand_efficiency_ln>  (8) 
-0.33793552084648698

>  <r_i_glide_ligand_efficiency_sa>  (8) 
-0.15635596537247301

>  <r_i_glide_lipo>  (8) 
-1.39509205860409

>  <r_i_glide_metal>  (8) 
-0

>  <r_i_glide_rewards>  (8) 
0.98327372175788796

>  <r_lp_Energy>  (8) 
53.642161000000002

>  <r_qp_ACxDN^.5/SA>  (8) 
0.0070555000000000001

>  <r_qp_CIQPlogS>  (8) 
-6.1369999999999996

>  <r_qp_EA(eV)>  (8) 
0.55100000000000005

>  <r_qp_FISA>  (8) 
67.558000000000007

>  <r_qp_FOSA>  (8) 
35.514000000000003

>  <r_qp_IP(eV)>  (8) 
9.4879999999999995

>  <r_qp_Jm>  (8) 
0.00052090457132236104

>  <r_qp_PISA>  (8) 
349.14800000000002

>  <r_qp_PSA>  (8) 
42.628

>  <r_qp_PercentHumanOralAbsorption>  (8) 
100

>  <r_qp_QPPCaco>  (8) 
565.12300000000005

>  <r_qp_QPPMDCK>  (8) 
3068.4349999999999

>  <r_qp_QPlogBB>  (8) 
0.65900000000000003

>  <r_qp_QPlogHERG>  (8) 
-6.5049999999999999

>  <r_qp_QPlogKhsa>  (8) 
0.83799999999999997

>  <r_qp_QPlogKp>  (8) 
-3.4049999999999998

>  <r_qp_QPlogPC16>  (8) 
12.478

>  <r_qp_QPlogPo/w>  (8) 
4.8520000000000003

>  <r_qp_QPlogPoct>  (8) 
19.192

>  <r_qp_QPlogPw>  (8) 
9.609

>  <r_qp_QPlogS>  (8) 
-5.5149999999999997

>  <r_qp_QPpolrz>  (8) 
42.597999999999999

>  <r_qp_SASA>  (8) 
637.798

>  <r_qp_SAamideO>  (8) 
0

>  <r_qp_SAfluorine>  (8) 
78.106999999999999

>  <r_qp_WPSA>  (8) 
185.577

>  <r_qp_accptHB>  (8) 
4.5

>  <r_qp_dip^2/V>  (8) 
0.021811500000000001

>  <r_qp_dipole>  (8) 
5.0449999999999999

>  <r_qp_donorHB>  (8) 
1

>  <r_qp_glob>  (8) 
0.84046549999999998

>  <r_qp_mol_MW>  (8) 
433.28399999999999

>  <r_qp_volume>  (8) 
1166.963

>  <r_sd_BIOSOLVEIT.INFINISEE\_FTREES\_SIMILARITY>  (8) 
0.90600000000000003

>  <r_sd_BIOSOLVEIT.LOGP>  (8) 
4.3982000000000001

>  <r_sd_BIOSOLVEIT.MOLECULAR\_WEIGHT>  (8) 
434.291

>  <r_sd_BIOSOLVEIT.TPSA>  (8) 
33.539999999999999

>  <i_epik_Tot_Q>  (8) 
0

>  <i_epik_Tot_abs_Q>  (8) 
0

>  <i_f3d_flags>  (8) 
0

>  <i_i_glide_confnum>  (8) 
4

>  <i_i_glide_lignum>  (8) 
412

>  <i_i_glide_posenum>  (8) 
17

>  <i_i_glide_rotatable_bonds>  (8) 
3

>  <i_lp_mmshare_version>  (8) 
65135

>  <i_m_ct_format>  (8) 
2

>  <i_m_source_file_index>  (8) 
1556

>  <i_qp_#NandO>  (8) 
3

>  <i_qp_#acid>  (8) 
0

>  <i_qp_#amide>  (8) 
0

>  <i_qp_#amidine>  (8) 
0

>  <i_qp_#amine>  (8) 
1

>  <i_qp_#in34>  (8) 
0

>  <i_qp_#in56>  (8) 
18

>  <i_qp_#metab>  (8) 
6

>  <i_qp_#nonHatm>  (8) 
29

>  <i_qp_#noncon>  (8) 
2

>  <i_qp_#ringatoms>  (8) 
23

>  <i_qp_#rotor>  (8) 
2

>  <i_qp_#rtvFG>  (8) 
0

>  <i_qp_#stars>  (8) 
1

>  <i_qp_CNS>  (8) 
2

>  <i_qp_HumanOralAbsorption>  (8) 
3

>  <i_qp_RuleOfFive>  (8) 
0

>  <i_qp_RuleOfThree>  (8) 
0

>  <i_sd_BIOSOLVEIT.INFINISEE\_REAGENT1\_NAME>  (8) 
14772912

>  <i_sd_BIOSOLVEIT.INFINISEE\_REAGENT2\_NAME>  (8) 
666388

>  <i_sd_BIOSOLVEIT.INFINISEE\_RESULT\_RANK>  (8) 
62772

>  <i_sd_version>  (8) 
0

>  <b_lp_Chiralities_Consistent>  (8) 
1

>  <b_sd_chiral_flag>  (8) 
0

>  <acquisition_id>  (8) 
ATP-ACQ-0008

>  <canonical_id>  (8) 
ATP-HTVS-43E54E69D2FC

>  <compound_code>  (8) 
49761

>  <title>  (8) 
m_2230bdc____14772912____666388

>  <variant>  (8) 
49761-2

>  <selection_arm>  (8) 
descriptor_diversity

>  <priority>  (8) 
P0

>  <wave>  (8) 
1

>  <source_file>  (8) 
运行/运行/ATP-VSW/ATP-VSW-DOCK_HTVS_1-001_lib/ATP-VSW-DOCK_HTVS_1-001_lib

>  <canonical_smiles>  (8) 
O=C1CN(Cc2ccc(F)cc2Cl)[C@H](c2ccccc2F)c2cc(Cl)ccc2N1

$$$$
ATP-ACQ-0009
     RDKit          3D

 60 63  0  0  0  0  0  0  0  0999 V2000
  197.6597  181.2365  150.3928 F   0  0  0  0  0  0  0  0  0  0  0  0
  197.9251  180.7092  151.6149 C   0  0  0  0  0  0  0  0  0  0  0  0
  196.8730  180.3288  152.4871 C   0  0  0  0  0  0  0  0  0  0  0  0
  197.1578  179.7830  153.7776 C   0  0  0  0  0  0  0  0  0  0  0  0
  198.5214  179.6670  154.2204 C   0  0  0  0  0  0  0  0  0  0  0  0
  199.5601  180.1398  153.3681 C   0  0  0  0  0  0  0  0  0  0  0  0
  199.2560  180.5818  152.0734 C   0  0  0  0  0  0  0  0  0  0  0  0
  198.8166  179.1157  155.6297 C   0  0  1  0  0  0  0  0  0  0  0  0
  199.9341  178.0940  155.6808 N   0  0  1  0  0  0  0  0  0  0  0  0
  201.3645  178.5516  155.5260 C   0  0  2  0  0  0  0  0  0  0  0  0
  199.8406  177.1978  156.8630 C   0  0  2  0  0  0  0  0  0  0  0  0
  198.9859  180.2454  156.6738 C   0  0  1  0  0  0  0  0  0  0  0  0
  198.0320  181.3409  156.5080 N   0  0  0  0  0  0  0  0  0  0  0  0
  198.1146  182.3856  157.4391 C   0  0  0  0  0  0  0  0  0  0  0  0
  196.9347  182.8869  158.0640 C   0  0  0  0  0  0  0  0  0  0  0  0
  197.0698  183.9411  159.0114 C   0  0  0  0  0  0  0  0  0  0  0  0
  198.2845  184.4159  159.3096 N   0  0  0  0  0  0  0  0  0  0  0  0
  199.4297  183.9742  158.7408 C   0  0  0  0  0  0  0  0  0  0  0  0
  199.3676  182.9392  157.7967 C   0  0  0  0  0  0  0  0  0  0  0  0
  200.7250  184.6979  159.0590 C   0  0  1  0  0  0  0  0  0  0  0  0
  200.5491  186.0293  159.5374 O   0  0  0  0  0  0  0  0  0  0  0  0
  199.9107  186.9843  158.7615 C   0  0  0  0  0  0  0  0  0  0  0  0
  199.7702  188.2682  159.3289 C   0  0  0  0  0  0  0  0  0  0  0  0
  199.0327  189.2704  158.6624 C   0  0  0  0  0  0  0  0  0  0  0  0
  198.4197  188.9980  157.4228 C   0  0  0  0  0  0  0  0  0  0  0  0
  198.5691  187.7268  156.8389 C   0  0  0  0  0  0  0  0  0  0  0  0
  199.3350  186.7447  157.4841 C   0  0  0  0  0  0  0  0  0  0  0  0
  195.9186  184.5022  159.6137 C   0  0  0  0  0  0  0  0  0  0  0  0
  194.6539  183.9671  159.3332 C   0  0  0  0  0  0  0  0  0  0  0  0
  194.5252  182.8916  158.4441 C   0  0  0  0  0  0  0  0  0  0  0  0
  193.2846  182.3961  158.1615 O   0  0  0  0  0  0  0  0  0  0  0  0
  195.6587  182.3627  157.7931 C   0  0  0  0  0  0  0  0  0  0  0  0
  195.8325  180.4734  152.1632 H   0  0  0  0  0  0  0  0  0  0  0  0
  196.3400  179.5232  154.4348 H   0  0  0  0  0  0  0  0  0  0  0  0
  200.5830  180.2414  153.6362 H   0  0  0  0  0  0  0  0  0  0  0  0
  200.0775  180.8761  151.4481 H   0  0  0  0  0  0  0  0  0  0  0  0
  197.8946  178.5944  155.9422 H   0  0  0  0  0  0  0  0  0  0  0  0
  201.6019  179.3354  156.2543 H   0  0  0  0  0  0  0  0  0  0  0  0
  201.6315  178.8551  154.5261 H   0  0  0  0  0  0  0  0  0  0  0  0
  202.0359  177.7250  155.7640 H   0  0  0  0  0  0  0  0  0  0  0  0
  199.9697  177.7656  157.7940 H   0  0  0  0  0  0  0  0  0  0  0  0
  200.6544  176.4584  156.8335 H   0  0  0  0  0  0  0  0  0  0  0  0
  198.9035  176.6341  156.9266 H   0  0  0  0  0  0  0  0  0  0  0  0
  198.9274  179.8262  157.6899 H   0  0  0  0  0  0  0  0  0  0  0  0
  199.9615  180.7055  156.5611 H   0  0  0  0  0  0  0  0  0  0  0  0
  197.8598  181.6075  155.5430 H   0  0  0  0  0  0  0  0  0  0  0  0
  200.2799  182.6398  157.2982 H   0  0  0  0  0  0  0  0  0  0  0  0
  201.2267  184.1269  159.8434 H   0  0  0  0  0  0  0  0  0  0  0  0
  201.3950  184.6939  158.1986 H   0  0  0  0  0  0  0  0  0  0  0  0
  200.1974  188.4870  160.3000 H   0  0  0  0  0  0  0  0  0  0  0  0
  198.9277  190.2480  159.1099 H   0  0  0  0  0  0  0  0  0  0  0  0
  197.8525  189.7612  156.9087 H   0  0  0  0  0  0  0  0  0  0  0  0
  198.0872  187.4865  155.8995 H   0  0  0  0  0  0  0  0  0  0  0  0
  199.4046  185.7945  156.9797 H   0  0  0  0  0  0  0  0  0  0  0  0
  196.0163  185.3333  160.3033 H   0  0  0  0  0  0  0  0  0  0  0  0
  193.7713  184.3956  159.7947 H   0  0  0  0  0  0  0  0  0  0  0  0
  193.2076  182.2724  157.1940 H   0  0  0  0  0  0  0  0  0  0  0  0
  195.5429  181.5383  157.1004 H   0  0  0  0  0  0  0  0  0  0  0  0
  198.3607  185.2328  159.9168 H   0  0  0  0  0  0  0  0  0  0  0  0
  199.7213  177.4873  154.9069 H   0  0  0  0  0  0  0  0  0  0  0  0
  1  2  1  0
  2  3  1  0
  2  7  2  0
  3  4  2  0
  3 33  1  0
  4  5  1  0
  4 34  1  0
  5  6  2  0
  5  8  1  0
  6  7  1  0
  6 35  1  0
  7 36  1  0
  8  9  1  0
  8 12  1  0
  8 37  1  1
  9 10  1  0
  9 11  1  0
  9 60  1  6
 10 38  1  1
 10 39  1  0
 10 40  1  0
 11 41  1  1
 11 42  1  0
 11 43  1  0
 12 13  1  0
 12 44  1  1
 12 45  1  0
 13 14  1  0
 13 46  1  0
 14 15  1  0
 14 19  2  0
 15 16  1  0
 15 32  2  0
 16 17  1  0
 16 28  2  0
 17 18  2  0
 17 59  1  0
 18 19  1  0
 18 20  1  0
 19 47  1  0
 20 21  1  0
 20 48  1  1
 20 49  1  0
 21 22  1  0
 22 23  2  0
 22 27  1  0
 23 24  1  0
 23 50  1  0
 24 25  2  0
 24 51  1  0
 25 26  1  0
 25 52  1  0
 26 27  2  0
 26 53  1  0
 27 54  1  0
 28 29  1  0
 28 55  1  0
 29 30  2  0
 29 56  1  0
 30 31  1  0
 30 32  1  0
 31 57  1  0
 32 58  1  0
M  CHG  2   9   1  17   1
M  END
>  <s_epik_cmdline>  (9) 
J2VwaWtfcHl0aG9uJywgJy1waCcsICc3LjAwMDAwMCcsICctcGh0JywgJzIuMDAwMDAwJywgJy1tcycsICcxNicsICctdG4nLCAnOCcsICctbWEnLCAnMjAwJywgJy1pbWFlJywgJzxpbmZpbGUubWFlPicsICctb21hZScsICc8b3V0ZmlsZS5tYWU+Jw==

>  <s_epik_input>  (9) 
RmMxW2NIXVtjSF1jKFtjSF1bY0hdMSlbQ0BASF0oTihbQ0gzXSlbQ0gzXSlbQ0gyXVtOSF1jMltjSF1jKG5jKGMyMylbY0hdW2NIXWMoW09IXSlbY0hdMylbQ0gyXU9jNFtjSF1bY0hdW2NIXVtjSF1bY0hdNA==

>  <s_i_glide_gridfile>  (9) 
ATP-Grid

>  <s_lp_Force_Field>  (9) 
OPLS_2005

>  <s_lp_Variant>  (9) 
YAS_R004____OTV1509977____OTV7113231893____OTV7020431351-1

>  <s_lp_label>  (9) 
15_sdstereoexpander_1_neutralizer_1_epik_1_stereoizer_1

>  <s_m_source_file>  (9) 
ATP-VSW-LIGPREP-002-in.maegz

>  <s_sd_BIOSOLVEIT.INFINISEE\_QUERY\_NAME>  (9) 
Ref-Lig

>  <s_sd_BIOSOLVEIT.INFINISEE\_QUERY\_SMILES>  (9) 
S(c1nc2c(cc1C[NH2+]Cc3ccc(cc3)C[NH+](C)C)cccc2)Cc4ccccc4

>  <s_sd_BIOSOLVEIT.INFINISEE\_REACTION\_NAME>  (9) 
YAS_R004

>  <s_sd_BIOSOLVEIT.INFINISEE\_REAGENT1\_NAME>  (9) 
OTV1509977

>  <s_sd_BIOSOLVEIT.INFINISEE\_REAGENT1\_SMILES>  (9) 
Oc1ccc(N)cc1

>  <s_sd_BIOSOLVEIT.INFINISEE\_REAGENT2\_NAME>  (9) 
OTV7113231893

>  <s_sd_BIOSOLVEIT.INFINISEE\_REAGENT2\_SMILES>  (9) 
O=C(O)COc1ccccc1

>  <s_sd_BIOSOLVEIT.INFINISEE\_REAGENT3\_NAME>  (9) 
OTV7020431351

>  <s_sd_BIOSOLVEIT.INFINISEE\_REAGENT3\_SMILES>  (9) 
Fc1ccc(cc1)C(N(C)C)CN

>  <s_sd_BIOSOLVEIT.INFINISEE\_SPACE>  (9) 
CHEMriya_12bn_2022-01

>  <s_vsw_compound_code>  (9) 
450

>  <s_vsw_variant>  (9) 
450-1

>  <r_epik_Charging_Adjusted_Penalty>  (9) 
0.22531346519484399

>  <r_epik_Ionization_Penalty>  (9) 
0.1198

>  <r_epik_Ionization_Penalty_Charging>  (9) 
0.1115

>  <r_epik_Ionization_Penalty_Neutral>  (9) 
0.0083999999999999995

>  <r_epik_State_Penalty>  (9) 
0.1139

>  <r_i_docking_score>  (9) 
-5.06327281392812

>  <r_i_glide_ecoul>  (9) 
-16.0771389007568

>  <r_i_glide_eff_state_penalty>  (9) 
0.1139

>  <r_i_glide_einternal>  (9) 
8.7264013290405291

>  <r_i_glide_emodel>  (9) 
-64.854697037685796

>  <r_i_glide_energy>  (9) 
-46.677461624145501

>  <r_i_glide_erotb>  (9) 
0.63556715472457004

>  <r_i_glide_esite>  (9) 
-0.091832139320152203

>  <r_i_glide_evdw>  (9) 
-30.6003227233887

>  <r_i_glide_gscore>  (9) 
-5.1771728139281201

>  <r_i_glide_hbond>  (9) 
-0.15509557057996801

>  <r_i_glide_ligand_efficiency>  (9) 
-0.158227275435254

>  <r_i_glide_ligand_efficiency_ln>  (9) 
-1.1338048026426699

>  <r_i_glide_ligand_efficiency_sa>  (9) 
-0.50234028637164196

>  <r_i_glide_lipo>  (9) 
-0.88856356866712705

>  <r_i_glide_metal>  (9) 
-0

>  <r_i_glide_rewards>  (9) 
-0.73566171880248399

>  <r_lp_Energy>  (9) 
37.708122000000003

>  <r_lp_tautomer_probability>  (9) 
1

>  <r_qp_ACxDN^.5/SA>  (9) 
0.0112257

>  <r_qp_CIQPlogS>  (9) 
-5.9859999999999998

>  <r_qp_EA(eV)>  (9) 
0.86399999999999999

>  <r_qp_FISA>  (9) 
61.512999999999998

>  <r_qp_FOSA>  (9) 
204.78

>  <r_qp_IP(eV)>  (9) 
8.3599999999999994

>  <r_qp_Jm>  (9) 
0.074282318313520598

>  <r_qp_PISA>  (9) 
386.84699999999998

>  <r_qp_PSA>  (9) 
55.545999999999999

>  <r_qp_PercentHumanOralAbsorption>  (9) 
100

>  <r_qp_QPPCaco>  (9) 
644.87400000000002

>  <r_qp_QPPMDCK>  (9) 
562.404

>  <r_qp_QPlogBB>  (9) 
-0.055

>  <r_qp_QPlogHERG>  (9) 
-6.5910000000000002

>  <r_qp_QPlogKhsa>  (9) 
0.75800000000000001

>  <r_qp_QPlogKp>  (9) 
-2.4889999999999999

>  <r_qp_QPlogPC16>  (9) 
13.935

>  <r_qp_QPlogPo/w>  (9) 
4.8769999999999998

>  <r_qp_QPlogPoct>  (9) 
21.318000000000001

>  <r_qp_QPlogPw>  (9) 
10.811999999999999

>  <r_qp_QPlogS>  (9) 
-4.2750000000000004

>  <r_qp_QPpolrz>  (9) 
45.192

>  <r_qp_SASA>  (9) 
692.88999999999999

>  <r_qp_SAamideO>  (9) 
0

>  <r_qp_SAfluorine>  (9) 
39.750999999999998

>  <r_qp_WPSA>  (9) 
39.750999999999998

>  <r_qp_accptHB>  (9) 
5.5

>  <r_qp_dip^2/V>  (9) 
0.026339899999999999

>  <r_qp_dipole>  (9) 
5.9299999999999997

>  <r_qp_donorHB>  (9) 
2

>  <r_qp_glob>  (9) 
0.84626760000000001

>  <r_qp_mol_MW>  (9) 
431.50900000000001

>  <r_qp_volume>  (9) 
1335.0899999999999

>  <r_sd_BIOSOLVEIT.INFINISEE\_FTREES\_SIMILARITY>  (9) 
0.93400000000000005

>  <r_sd_BIOSOLVEIT.LOGP>  (9) 
3.9561999999999999

>  <r_sd_BIOSOLVEIT.MOLECULAR\_WEIGHT>  (9) 
432.51600000000002

>  <r_sd_BIOSOLVEIT.TPSA>  (9) 
58.82

>  <i_epik_Tot_Q>  (9) 
2

>  <i_epik_Tot_abs_Q>  (9) 
2

>  <i_f3d_flags>  (9) 
0

>  <i_i_glide_confnum>  (9) 
2

>  <i_i_glide_lignum>  (9) 
72

>  <i_i_glide_posenum>  (9) 
5

>  <i_i_glide_rotatable_bonds>  (9) 
9

>  <i_lp_mmshare_version>  (9) 
65135

>  <i_m_ct_format>  (9) 
2

>  <i_m_source_file_index>  (9) 
15

>  <i_qp_#NandO>  (9) 
5

>  <i_qp_#acid>  (9) 
0

>  <i_qp_#amide>  (9) 
0

>  <i_qp_#amidine>  (9) 
0

>  <i_qp_#amine>  (9) 
1

>  <i_qp_#in34>  (9) 
0

>  <i_qp_#in56>  (9) 
22

>  <i_qp_#metab>  (9) 
7

>  <i_qp_#nonHatm>  (9) 
32

>  <i_qp_#noncon>  (9) 
0

>  <i_qp_#ringatoms>  (9) 
22

>  <i_qp_#rotor>  (9) 
9

>  <i_qp_#rtvFG>  (9) 
0

>  <i_qp_#stars>  (9) 
0

>  <i_qp_CNS>  (9) 
1

>  <i_qp_HumanOralAbsorption>  (9) 
3

>  <i_qp_RuleOfFive>  (9) 
0

>  <i_qp_RuleOfThree>  (9) 
1

>  <i_sd_BIOSOLVEIT.INFINISEE\_RESULT\_RANK>  (9) 
3203

>  <i_sd_version>  (9) 
0

>  <b_lp_Chiralities_Consistent>  (9) 
1

>  <b_sd_chiral_flag>  (9) 
0

>  <acquisition_id>  (9) 
ATP-ACQ-0009

>  <canonical_id>  (9) 
ATP-HTVS-1402A7ED8177

>  <compound_code>  (9) 
450

>  <title>  (9) 
YAS_R004____OTV1509977____OTV7113231893____OTV7020431351

>  <variant>  (9) 
450-1

>  <selection_arm>  (9) 
score_calibration

>  <priority>  (9) 
P0

>  <wave>  (9) 
1

>  <source_file>  (9) 
运行/运行/ATP-VSW/ATP-VSW-DOCK_HTVS_1-002_lib.maegz

>  <canonical_smiles>  (9) 
C[NH+](C)[C@@H](CNc1cc(COc2ccccc2)[nH+]c2ccc(O)cc12)c1ccc(F)cc1

$$$$
ATP-ACQ-0010
     RDKit          3D

 53 55  0  0  0  0  0  0  0  0999 V2000
  198.4147  185.3984  147.0090 Br  0  0  0  0  0  0  0  0  0  0  0  0
  197.9063  184.1274  148.3282 C   0  0  0  0  0  0  0  0  0  0  0  0
  196.7843  184.3670  149.1511 C   0  0  0  0  0  0  0  0  0  0  0  0
  196.3964  183.4158  150.1121 C   0  0  0  0  0  0  0  0  0  0  0  0
  197.1528  182.2330  150.2814 C   0  0  0  0  0  0  0  0  0  0  0  0
  196.7957  181.2972  151.2115 O   0  0  0  0  0  0  0  0  0  0  0  0
  196.9146  181.5832  152.5511 C   0  0  0  0  0  0  0  0  0  0  0  0
  196.7502  180.5054  153.3510 N   0  0  0  0  0  0  0  0  0  0  0  0
  196.7950  180.6792  154.6864 C   0  0  0  0  0  0  0  0  0  0  0  0
  196.9925  181.9404  155.2808 C   0  0  0  0  0  0  0  0  0  0  0  0
  197.1611  183.0630  154.4521 C   0  0  0  0  0  0  0  0  0  0  0  0
  197.1519  182.8851  153.0644 C   0  0  0  0  0  0  0  0  0  0  0  0
  197.0437  182.1022  156.7755 C   0  0  1  0  0  0  0  0  0  0  0  0
  195.7359  181.8361  157.4119 N   0  0  1  0  0  0  0  0  0  0  0  0
  195.7299  182.0049  158.8813 C   0  0  1  0  0  0  0  0  0  0  0  0
  195.9670  183.4473  159.3055 C   0  0  0  0  0  0  0  0  0  0  0  0
  197.2840  183.9448  159.4211 C   0  0  0  0  0  0  0  0  0  0  0  0
  197.5012  185.2978  159.7328 C   0  0  0  0  0  0  0  0  0  0  0  0
  196.4089  186.1577  159.9870 C   0  0  0  0  0  0  0  0  0  0  0  0
  195.0994  185.6472  159.9180 C   0  0  0  0  0  0  0  0  0  0  0  0
  194.8757  184.3004  159.5659 C   0  0  0  0  0  0  0  0  0  0  0  0
  196.6528  187.6231  160.3255 C   0  0  1  0  0  0  0  0  0  0  0  0
  196.7473  188.4994  159.1267 N   0  0  1  0  0  0  0  0  0  0  0  0
  196.7964  189.9281  159.5083 C   0  0  2  0  0  0  0  0  0  0  0  0
  197.8522  188.1510  158.1966 C   0  0  2  0  0  0  0  0  0  0  0  0
  198.2725  181.9976  149.4575 C   0  0  0  0  0  0  0  0  0  0  0  0
  198.6504  182.9451  148.4887 C   0  0  0  0  0  0  0  0  0  0  0  0
  194.9987  182.3614  156.9605 H   0  0  0  0  0  0  0  0  0  0  0  0
  196.2161  185.2770  149.0282 H   0  0  0  0  0  0  0  0  0  0  0  0
  195.5205  183.5827  150.7204 H   0  0  0  0  0  0  0  0  0  0  0  0
  196.6633  179.8025  155.3069 H   0  0  0  0  0  0  0  0  0  0  0  0
  197.3029  184.0533  154.8626 H   0  0  0  0  0  0  0  0  0  0  0  0
  197.2848  183.7625  152.4526 H   0  0  0  0  0  0  0  0  0  0  0  0
  197.8084  181.4402  157.1854 H   0  0  0  0  0  0  0  0  0  0  0  0
  197.3612  183.1317  156.9508 H   0  0  0  0  0  0  0  0  0  0  0  0
  194.7677  181.6530  159.2595 H   0  0  0  0  0  0  0  0  0  0  0  0
  196.4857  181.3519  159.3244 H   0  0  0  0  0  0  0  0  0  0  0  0
  198.1334  183.3058  159.2358 H   0  0  0  0  0  0  0  0  0  0  0  0
  198.5126  185.6730  159.7814 H   0  0  0  0  0  0  0  0  0  0  0  0
  194.2506  186.2871  160.1042 H   0  0  0  0  0  0  0  0  0  0  0  0
  193.8607  183.9364  159.4747 H   0  0  0  0  0  0  0  0  0  0  0  0
  195.8332  187.9688  160.9575 H   0  0  0  0  0  0  0  0  0  0  0  0
  197.5471  187.7220  160.9314 H   0  0  0  0  0  0  0  0  0  0  0  0
  197.6970  190.1499  160.0854 H   0  0  0  0  0  0  0  0  0  0  0  0
  195.9318  190.1996  160.1172 H   0  0  0  0  0  0  0  0  0  0  0  0
  196.7905  190.5669  158.6233 H   0  0  0  0  0  0  0  0  0  0  0  0
  198.8178  188.2041  158.7018 H   0  0  0  0  0  0  0  0  0  0  0  0
  197.8778  188.8357  157.3460 H   0  0  0  0  0  0  0  0  0  0  0  0
  197.7338  187.1492  157.7846 H   0  0  0  0  0  0  0  0  0  0  0  0
  198.8463  181.0854  149.5741 H   0  0  0  0  0  0  0  0  0  0  0  0
  199.5165  182.7634  147.8663 H   0  0  0  0  0  0  0  0  0  0  0  0
  195.8869  188.3736  158.6140 H   0  0  0  0  0  0  0  0  0  0  0  0
  195.5411  180.8386  157.2879 H   0  0  0  0  0  0  0  0  0  0  0  0
  1  2  1  0
  2  3  1  0
  2 27  2  0
  3  4  2  0
  3 29  1  0
  4  5  1  0
  4 30  1  0
  5  6  1  0
  5 26  2  0
  6  7  1  0
  7  8  1  0
  7 12  2  0
  8  9  2  0
  9 10  1  0
  9 31  1  0
 10 11  2  0
 10 13  1  0
 11 12  1  0
 11 32  1  0
 12 33  1  0
 13 14  1  0
 13 34  1  1
 13 35  1  0
 14 15  1  0
 14 28  1  6
 14 53  1  0
 15 16  1  0
 15 36  1  1
 15 37  1  0
 16 17  1  0
 16 21  2  0
 17 18  2  0
 17 38  1  0
 18 19  1  0
 18 39  1  0
 19 20  2  0
 19 22  1  0
 20 21  1  0
 20 40  1  0
 21 41  1  0
 22 23  1  0
 22 42  1  1
 22 43  1  0
 23 24  1  0
 23 25  1  0
 23 52  1  6
 24 44  1  1
 24 45  1  0
 24 46  1  0
 25 47  1  1
 25 48  1  0
 25 49  1  0
 26 27  1  0
 26 50  1  0
 27 51  1  0
M  CHG  2  14   1  23   1
M  END
>  <s_epik_cmdline>  (10) 
J2VwaWtfcHl0aG9uJywgJy1waCcsICc3LjAwMDAwMCcsICctcGh0JywgJzIuMDAwMDAwJywgJy1tcycsICcxNicsICctdG4nLCAnOCcsICctbWEnLCAnMjAwJywgJy1pbWFlJywgJzxpbmZpbGUubWFlPicsICctb21hZScsICc8b3V0ZmlsZS5tYWU+Jw==

>  <s_epik_input>  (10) 
QnJjMVtjSF1bY0hdYyhbY0hdW2NIXTEpT2MybltjSF1jKFtjSF1bY0hdMilbQ0gyXVtOSF1bQ0gyXWMzW2NIXVtjSF1jKFtjSF1bY0hdMylbQ0gyXU4oW0NIM10pW0NIM10=

>  <s_i_glide_gridfile>  (10) 
ATP-Grid

>  <s_lp_Force_Field>  (10) 
OPLS_2005

>  <s_lp_Variant>  (10) 
m_270004bbb____8288884____20640242-1

>  <s_lp_label>  (10) 
1197_sdstereoexpander_1_neutralizer_1_epik_1_stereoizer_1

>  <s_m_source_file>  (10) 
ATP-VSW-LIGPREP-002-in.maegz

>  <s_sd_BIOSOLVEIT.INFINISEE\_QUERY\_NAME>  (10) 
Ref-Lig

>  <s_sd_BIOSOLVEIT.INFINISEE\_QUERY\_SMILES>  (10) 
S(c1nc2c(cc1C[NH2+]Cc3ccc(cc3)C[NH+](C)C)cccc2)Cc4ccccc4

>  <s_sd_BIOSOLVEIT.INFINISEE\_REACTION\_NAME>  (10) 
m_270004bbb

>  <s_sd_BIOSOLVEIT.INFINISEE\_REAGENT1\_SMILES>  (10) 
[R1*]NCc1ccc(cc1)CN(C)C

>  <s_sd_BIOSOLVEIT.INFINISEE\_REAGENT2\_SMILES>  (10) 
[R1*]Cc1cnc(Oc2ccc(Br)cc2)cc1

>  <s_sd_BIOSOLVEIT.INFINISEE\_SPACE>  (10) 
REALSpace_44bn_2023-08

>  <s_vsw_compound_code>  (10) 
38274

>  <s_vsw_variant>  (10) 
38274-1

>  <r_epik_Charging_Adjusted_Penalty>  (10) 
0.42394423779197299

>  <r_epik_Ionization_Penalty>  (10) 
0.20999999999999999

>  <r_epik_Ionization_Penalty_Charging>  (10) 
0.20999999999999999

>  <r_epik_Ionization_Penalty_Neutral>  (10) 
0

>  <r_epik_State_Penalty>  (10) 
0.214

>  <r_i_docking_score>  (10) 
-6.27229934947262

>  <r_i_glide_ecoul>  (10) 
-12.959820747375501

>  <r_i_glide_eff_state_penalty>  (10) 
0.214

>  <r_i_glide_einternal>  (10) 
2.0179190635681201

>  <r_i_glide_emodel>  (10) 
-79.270718719398204

>  <r_i_glide_energy>  (10) 
-48.894360542297399

>  <r_i_glide_erotb>  (10) 
0.75773174054959602

>  <r_i_glide_esite>  (10) 
-0.10000000000000001

>  <r_i_glide_evdw>  (10) 
-35.934539794921903

>  <r_i_glide_gscore>  (10) 
-6.4862993494726204

>  <r_i_glide_hbond>  (10) 
-0.40000000000000002

>  <r_i_glide_ligand_efficiency>  (10) 
-0.23230738331380099

>  <r_i_glide_ligand_efficiency_ln>  (10) 
-1.4600878816207601

>  <r_i_glide_ligand_efficiency_sa>  (10) 
-0.69692214917575501

>  <r_i_glide_lipo>  (10) 
-2.28991285180616

>  <r_i_glide_metal>  (10) 
-0

>  <r_i_glide_rewards>  (10) 
-0.71341813636363605

>  <r_lp_Energy>  (10) 
17.776261000000002

>  <r_lp_tautomer_probability>  (10) 
1

>  <r_qp_ACxDN^.5/SA>  (10) 
0.0066769000000000004

>  <r_qp_CIQPlogS>  (10) 
-4.8730000000000002

>  <r_qp_EA(eV)>  (10) 
0.435

>  <r_qp_FISA>  (10) 
37.649000000000001

>  <r_qp_FOSA>  (10) 
250.80000000000001

>  <r_qp_IP(eV)>  (10) 
9.0690000000000008

>  <r_qp_Jm>  (10) 
0.00057121106428761903

>  <r_qp_PISA>  (10) 
383.01299999999998

>  <r_qp_PSA>  (10) 
39.448

>  <r_qp_PercentHumanOralAbsorption>  (10) 
100

>  <r_qp_QPPCaco>  (10) 
270.81400000000002

>  <r_qp_QPPMDCK>  (10) 
391.596

>  <r_qp_QPlogBB>  (10) 
0.64500000000000002

>  <r_qp_QPlogHERG>  (10) 
-8.532

>  <r_qp_QPlogKhsa>  (10) 
0.82499999999999996

>  <r_qp_QPlogKp>  (10) 
-4.2210000000000001

>  <r_qp_QPlogPC16>  (10) 
14.208

>  <r_qp_QPlogPo/w>  (10) 
4.7800000000000002

>  <r_qp_QPlogPoct>  (10) 
18.809000000000001

>  <r_qp_QPlogPw>  (10) 
9.0350000000000001

>  <r_qp_QPlogS>  (10) 
-4.6520000000000001

>  <r_qp_QPpolrz>  (10) 
44.472999999999999

>  <r_qp_SASA>  (10) 
748.85199999999998

>  <r_qp_SAamideO>  (10) 
0

>  <r_qp_SAfluorine>  (10) 
0

>  <r_qp_WPSA>  (10) 
77.390000000000001

>  <r_qp_accptHB>  (10) 
5

>  <r_qp_dip^2/V>  (10) 
0.0059160000000000003

>  <r_qp_dipole>  (10) 
2.7749999999999999

>  <r_qp_donorHB>  (10) 
1

>  <r_qp_glob>  (10) 
0.77003739999999998

>  <r_qp_mol_MW>  (10) 
426.35500000000002

>  <r_qp_volume>  (10) 
1302.01

>  <r_sd_BIOSOLVEIT.INFINISEE\_FTREES\_SIMILARITY>  (10) 
0.91100000000000003

>  <r_sd_BIOSOLVEIT.LOGP>  (10) 
2.5445000000000002

>  <r_sd_BIOSOLVEIT.MOLECULAR\_WEIGHT>  (10) 
428.37099999999998

>  <r_sd_BIOSOLVEIT.TPSA>  (10) 
43.170000000000002

>  <i_epik_Tot_Q>  (10) 
2

>  <i_epik_Tot_abs_Q>  (10) 
2

>  <i_f3d_flags>  (10) 
0

>  <i_i_glide_confnum>  (10) 
1

>  <i_i_glide_lignum>  (10) 
413

>  <i_i_glide_posenum>  (10) 
9

>  <i_i_glide_rotatable_bonds>  (10) 
8

>  <i_lp_mmshare_version>  (10) 
65135

>  <i_m_ct_format>  (10) 
2

>  <i_m_source_file_index>  (10) 
1197

>  <i_qp_#NandO>  (10) 
4

>  <i_qp_#acid>  (10) 
0

>  <i_qp_#amide>  (10) 
0

>  <i_qp_#amidine>  (10) 
0

>  <i_qp_#amine>  (10) 
2

>  <i_qp_#in34>  (10) 
0

>  <i_qp_#in56>  (10) 
18

>  <i_qp_#metab>  (10) 
6

>  <i_qp_#nonHatm>  (10) 
27

>  <i_qp_#noncon>  (10) 
0

>  <i_qp_#ringatoms>  (10) 
18

>  <i_qp_#rotor>  (10) 
8

>  <i_qp_#rtvFG>  (10) 
0

>  <i_qp_#stars>  (10) 
0

>  <i_qp_CNS>  (10) 
2

>  <i_qp_HumanOralAbsorption>  (10) 
3

>  <i_qp_RuleOfFive>  (10) 
0

>  <i_qp_RuleOfThree>  (10) 
0

>  <i_sd_BIOSOLVEIT.INFINISEE\_REAGENT1\_NAME>  (10) 
8288884

>  <i_sd_BIOSOLVEIT.INFINISEE\_REAGENT2\_NAME>  (10) 
20640242

>  <i_sd_BIOSOLVEIT.INFINISEE\_RESULT\_RANK>  (10) 
39995

>  <i_sd_version>  (10) 
0

>  <b_lp_Chiralities_Consistent>  (10) 
1

>  <b_sd_chiral_flag>  (10) 
0

>  <acquisition_id>  (10) 
ATP-ACQ-0010

>  <canonical_id>  (10) 
ATP-HTVS-6EF9F712D3BB

>  <compound_code>  (10) 
38274

>  <title>  (10) 
m_270004bbb____8288884____20640242

>  <variant>  (10) 
38274-1

>  <selection_arm>  (10) 
exploitation

>  <priority>  (10) 
P0

>  <wave>  (10) 
1

>  <source_file>  (10) 
运行/运行/ATP-VSW/ATP-VSW-DOCK_HTVS_1-002_lib.maegz

>  <canonical_smiles>  (10) 
C[NH+](C)Cc1ccc(C[NH2+]Cc2ccc(Oc3ccc(Br)cc3)nc2)cc1

$$$$
ATP-ACQ-0011
     RDKit          3D

 67 70  0  0  0  0  0  0  0  0999 V2000
  200.9481  177.1597  154.8156 O   0  0  0  0  0  0  0  0  0  0  0  0
  200.4111  177.2934  153.7160 C   0  0  0  0  0  0  0  0  0  0  0  0
  199.5438  178.2739  153.3994 N   0  0  0  0  0  0  0  0  0  0  0  0
  198.9696  179.2728  154.2309 C   0  0  0  0  0  0  0  0  0  0  0  0
  199.1832  179.2935  155.5643 N   0  0  0  0  0  0  0  0  0  0  0  0
  198.6084  180.2412  156.3212 C   0  0  0  0  0  0  0  0  0  0  0  0
  197.7987  181.2731  155.8042 C   0  0  0  0  0  0  0  0  0  0  0  0
  197.2652  182.2836  156.6265 N   0  0  0  0  0  0  0  0  0  0  0  0
  197.4287  182.2378  158.0688 C   0  0  1  0  0  0  0  0  0  0  0  0
  196.7332  183.3871  158.7594 C   0  0  0  0  0  0  0  0  0  0  0  0
  195.3568  183.2985  159.0396 C   0  0  0  0  0  0  0  0  0  0  0  0
  194.6948  184.3646  159.6745 C   0  0  0  0  0  0  0  0  0  0  0  0
  195.4011  185.5394  160.0302 C   0  0  0  0  0  0  0  0  0  0  0  0
  194.7930  186.6394  160.6555 N   0  0  0  0  0  0  0  0  0  0  0  0
  193.3771  186.6897  161.0030 C   0  0  1  0  0  0  0  0  0  0  0  0
  193.1994  186.7897  162.5164 C   0  0  1  0  0  0  0  0  0  0  0  0
  191.8434  187.0265  162.8167 O   0  0  0  0  0  0  0  0  0  0  0  0
  196.7808  185.6222  159.7351 C   0  0  0  0  0  0  0  0  0  0  0  0
  197.4471  184.5501  159.1053 C   0  0  0  0  0  0  0  0  0  0  0  0
  197.5546  181.2559  154.4069 C   0  0  0  0  0  0  0  0  0  0  0  0
  198.1427  180.2401  153.6052 C   0  0  0  0  0  0  0  0  0  0  0  0
  197.9010  180.2305  152.2034 C   0  0  0  0  0  0  0  0  0  0  0  0
  197.0945  181.2160  151.6119 C   0  0  0  0  0  0  0  0  0  0  0  0
  196.5220  182.2209  152.4065 C   0  0  0  0  0  0  0  0  0  0  0  0
  196.7493  182.2404  153.7942 C   0  0  0  0  0  0  0  0  0  0  0  0
  200.6811  176.3134  152.6012 C   0  0  0  0  0  0  0  0  0  0  0  0
  201.1632  174.9884  152.8395 C   0  0  0  0  0  0  0  0  0  0  0  0
  201.4176  174.1455  151.7331 C   0  0  0  0  0  0  0  0  0  0  0  0
  201.1951  174.5766  150.4122 C   0  0  0  0  0  0  0  0  0  0  0  0
  200.7114  175.8691  150.1776 C   0  0  0  0  0  0  0  0  0  0  0  0
  200.4664  176.7298  151.2603 C   0  0  0  0  0  0  0  0  0  0  0  0
  201.4436  174.3953  154.2242 C   0  0  1  0  0  0  0  0  0  0  0  0
  202.8981  174.3583  154.5302 N   0  0  1  0  0  0  0  0  0  0  0  0
  203.5245  175.6917  154.6947 C   0  0  2  0  0  0  0  0  0  0  0  0
  203.1985  173.4812  155.6783 C   0  0  2  0  0  0  0  0  0  0  0  0
  199.2156  178.2890  152.4522 H   0  0  0  0  0  0  0  0  0  0  0  0
  198.8467  180.1640  157.3704 H   0  0  0  0  0  0  0  0  0  0  0  0
  196.6136  182.9590  156.2469 H   0  0  0  0  0  0  0  0  0  0  0  0
  197.0394  181.2987  158.4704 H   0  0  0  0  0  0  0  0  0  0  0  0
  198.4926  182.2846  158.3020 H   0  0  0  0  0  0  0  0  0  0  0  0
  194.8029  182.4132  158.7623 H   0  0  0  0  0  0  0  0  0  0  0  0
  193.6386  184.2520  159.8618 H   0  0  0  0  0  0  0  0  0  0  0  0
  195.3194  187.4980  160.7135 H   0  0  0  0  0  0  0  0  0  0  0  0
  192.9279  187.5613  160.5355 H   0  0  0  0  0  0  0  0  0  0  0  0
  192.8062  185.8361  160.6261 H   0  0  0  0  0  0  0  0  0  0  0  0
  193.5041  185.8389  162.9640 H   0  0  0  0  0  0  0  0  0  0  0  0
  193.8076  187.5995  162.9391 H   0  0  0  0  0  0  0  0  0  0  0  0
  191.5582  187.7862  162.3354 H   0  0  0  0  0  0  0  0  0  0  0  0
  197.3465  186.5090  159.9870 H   0  0  0  0  0  0  0  0  0  0  0  0
  198.5048  184.6227  158.8853 H   0  0  0  0  0  0  0  0  0  0  0  0
  198.3312  179.4861  151.5526 H   0  0  0  0  0  0  0  0  0  0  0  0
  196.9212  181.2028  150.5447 H   0  0  0  0  0  0  0  0  0  0  0  0
  195.8976  182.9823  151.9673 H   0  0  0  0  0  0  0  0  0  0  0  0
  196.2907  183.0203  154.3777 H   0  0  0  0  0  0  0  0  0  0  0  0
  201.7855  173.1432  151.8796 H   0  0  0  0  0  0  0  0  0  0  0  0
  201.3757  173.9168  149.5773 H   0  0  0  0  0  0  0  0  0  0  0  0
  200.5274  176.2069  149.1682 H   0  0  0  0  0  0  0  0  0  0  0  0
  200.1123  177.7186  151.0115 H   0  0  0  0  0  0  0  0  0  0  0  0
  200.8929  174.9034  155.0345 H   0  0  0  0  0  0  0  0  0  0  0  0
  201.0666  173.3708  154.2059 H   0  0  0  0  0  0  0  0  0  0  0  0
  203.1051  176.2217  155.5504 H   0  0  0  0  0  0  0  0  0  0  0  0
  203.3961  176.3107  153.8069 H   0  0  0  0  0  0  0  0  0  0  0  0
  204.5987  175.6122  154.8715 H   0  0  0  0  0  0  0  0  0  0  0  0
  202.7470  173.8773  156.5881 H   0  0  0  0  0  0  0  0  0  0  0  0
  204.2744  173.4304  155.8414 H   0  0  0  0  0  0  0  0  0  0  0  0
  202.8271  172.4684  155.5124 H   0  0  0  0  0  0  0  0  0  0  0  0
  203.3476  173.9310  153.7294 H   0  0  0  0  0  0  0  0  0  0  0  0
  1  2  2  0
  2  3  1  0
  2 26  1  0
  3  4  1  0
  3 36  1  0
  4  5  1  0
  4 21  2  0
  5  6  2  0
  6  7  1  0
  6 37  1  0
  7  8  1  0
  7 20  2  0
  8  9  1  0
  8 38  1  0
  9 10  1  0
  9 39  1  1
  9 40  1  0
 10 11  1  0
 10 19  2  0
 11 12  2  0
 11 41  1  0
 12 13  1  0
 12 42  1  0
 13 14  1  0
 13 18  2  0
 14 15  1  0
 14 43  1  0
 15 16  1  0
 15 44  1  6
 15 45  1  0
 16 17  1  0
 16 46  1  1
 16 47  1  0
 17 48  1  0
 18 19  1  0
 18 49  1  0
 19 50  1  0
 20 21  1  0
 20 25  1  0
 21 22  1  0
 22 23  2  0
 22 51  1  0
 23 24  1  0
 23 52  1  0
 24 25  2  0
 24 53  1  0
 25 54  1  0
 26 27  1  0
 26 31  2  0
 27 28  2  0
 27 32  1  0
 28 29  1  0
 28 55  1  0
 29 30  2  0
 29 56  1  0
 30 31  1  0
 30 57  1  0
 31 58  1  0
 32 33  1  0
 32 59  1  1
 32 60  1  0
 33 34  1  0
 33 35  1  0
 33 67  1  6
 34 61  1  1
 34 62  1  0
 34 63  1  0
 35 64  1  1
 35 65  1  0
 35 66  1  0
M  CHG  1  33   1
M  END
>  <s_epik_cmdline>  (11) 
J2VwaWtfcHl0aG9uJywgJy1waCcsICc3LjAwMDAwMCcsICctcGh0JywgJzIuMDAwMDAwJywgJy1tcycsICcxNicsICctdG4nLCAnOCcsICctbWEnLCAnMjAwJywgJy1pbWFlJywgJzxpbmZpbGUubWFlPicsICctb21hZScsICc8b3V0ZmlsZS5tYWU+Jw==

>  <s_epik_input>  (11) 
W2NIXTFbY0hdW2NIXVtjSF1jKFtDSDJdTihbQ0gzXSlbQ0gzXSljMUMoPU8pW05IXWMoYyhjMjMpW2NIXVtjSF1bY0hdW2NIXTMpbltjSF1jMltOSF1bQ0gyXWM0W2NIXVtjSF1jKFtjSF1bY0hdNClbTkhdW0NIMl1bQ0gyXVtPSF0=

>  <s_i_glide_gridfile>  (11) 
ATP-Grid

>  <s_lp_Force_Field>  (11) 
OPLS_2005

>  <s_lp_Variant>  (11) 
rxn502b____EMOL5415347____EMOL7515103____EMOL324170366-1

>  <s_lp_label>  (11) 
2985_sdstereoexpander_1_neutralizer_1_epik_1_stereoizer_1

>  <s_m_source_file>  (11) 
ATP-VSW-LIGPREP-001-in.maegz

>  <s_sd_BIOSOLVEIT.INFINISEE\_QUERY\_NAME>  (11) 
Ref-Lig

>  <s_sd_BIOSOLVEIT.INFINISEE\_QUERY\_SMILES>  (11) 
S(c1nc2c(cc1C[NH2+]Cc3ccc(cc3)C[NH+](C)C)cccc2)Cc4ccccc4

>  <s_sd_BIOSOLVEIT.INFINISEE\_REACTION\_NAME>  (11) 
rxn502b

>  <s_sd_BIOSOLVEIT.INFINISEE\_REAGENT1\_NAME>  (11) 
EMOL5415347

>  <s_sd_BIOSOLVEIT.INFINISEE\_REAGENT1\_SMILES>  (11) 
O=C(O)c1c(cccc1)CN(C)C

>  <s_sd_BIOSOLVEIT.INFINISEE\_REAGENT2\_NAME>  (11) 
EMOL7515103

>  <s_sd_BIOSOLVEIT.INFINISEE\_REAGENT2\_SMILES>  (11) 
Brc1c2c(c(nc1)N)cccc2

>  <s_sd_BIOSOLVEIT.INFINISEE\_REAGENT3\_NAME>  (11) 
EMOL324170366

>  <s_sd_BIOSOLVEIT.INFINISEE\_REAGENT3\_SMILES>  (11) 
OCCNc1ccc(cc1)CN

>  <s_sd_BIOSOLVEIT.INFINISEE\_SPACE>  (11) 
eXplore_7tr_2022-12

>  <s_vsw_compound_code>  (11) 
95489

>  <s_vsw_variant>  (11) 
95489-1

>  <r_epik_Charging_Adjusted_Penalty>  (11) 
0.131810615872997

>  <r_epik_Ionization_Penalty>  (11) 
0.071900000000000006

>  <r_epik_Ionization_Penalty_Charging>  (11) 
0.060100000000000001

>  <r_epik_Ionization_Penalty_Neutral>  (11) 
0.011900000000000001

>  <r_epik_State_Penalty>  (11) 
0.071800000000000003

>  <r_i_docking_score>  (11) 
-3.4960790733530702

>  <r_i_glide_ecoul>  (11) 
-2.45831370353699

>  <r_i_glide_eff_state_penalty>  (11) 
0.071800000000000003

>  <r_i_glide_einternal>  (11) 
2.0977005958557098

>  <r_i_glide_emodel>  (11) 
-56.025991213318697

>  <r_i_glide_energy>  (11) 
-44.466320753097499

>  <r_i_glide_erotb>  (11) 
0.91244354638238701

>  <r_i_glide_esite>  (11) 
-0.042776031286026597

>  <r_i_glide_evdw>  (11) 
-42.008007049560497

>  <r_i_glide_gscore>  (11) 
-3.5678790733530699

>  <r_i_glide_hbond>  (11) 
0

>  <r_i_glide_ligand_efficiency>  (11) 
-0.099887973524373494

>  <r_i_glide_ligand_efficiency_ln>  (11) 
-0.76746694789552505

>  <r_i_glide_ligand_efficiency_sa>  (11) 
-0.326740184601363

>  <r_i_glide_lipo>  (11) 
-1.7309167911660499

>  <r_i_glide_metal>  (11) 
-0

>  <r_i_glide_rewards>  (11) 
-0.237482389274805

>  <r_lp_Energy>  (11) 
35.608077000000002

>  <r_qp_ACxDN^.5/SA>  (11) 
0.021111100000000001

>  <r_qp_CIQPlogS>  (11) 
-5.1859999999999999

>  <r_qp_EA(eV)>  (11) 
0.71199999999999997

>  <r_qp_FISA>  (11) 
108.416

>  <r_qp_FOSA>  (11) 
289.351

>  <r_qp_IP(eV)>  (11) 
7.4989999999999997

>  <r_qp_Jm>  (11) 
0.0025506702418958702

>  <r_qp_PISA>  (11) 
473.81

>  <r_qp_PSA>  (11) 
91.409000000000006

>  <r_qp_PercentHumanOralAbsorption>  (11) 
92.727999999999994

>  <r_qp_QPPCaco>  (11) 
231.57300000000001

>  <r_qp_QPPMDCK>  (11) 
112.599

>  <r_qp_QPlogBB>  (11) 
-0.998

>  <r_qp_QPlogHERG>  (11) 
-8.6219999999999999

>  <r_qp_QPlogKhsa>  (11) 
0.39500000000000002

>  <r_qp_QPlogKp>  (11) 
-2.855

>  <r_qp_QPlogPC16>  (11) 
18.125

>  <r_qp_QPlogPo/w>  (11) 
4.0069999999999997

>  <r_qp_QPlogPoct>  (11) 
29.175999999999998

>  <r_qp_QPlogPw>  (11) 
18.271000000000001

>  <r_qp_QPlogS>  (11) 
-5.4100000000000001

>  <r_qp_QPpolrz>  (11) 
53.738999999999997

>  <r_qp_SASA>  (11) 
871.57799999999997

>  <r_qp_SAamideO>  (11) 
0

>  <r_qp_SAfluorine>  (11) 
0

>  <r_qp_WPSA>  (11) 
0

>  <r_qp_accptHB>  (11) 
9.1999999999999993

>  <r_qp_dip^2/V>  (11) 
0.044734700000000002

>  <r_qp_dipole>  (11) 
8.3539999999999992

>  <r_qp_donorHB>  (11) 
4

>  <r_qp_glob>  (11) 
0.74635200000000002

>  <r_qp_mol_MW>  (11) 
469.58499999999998

>  <r_qp_volume>  (11) 
1560.009

>  <r_sd_BIOSOLVEIT.INFINISEE\_FTREES\_SIMILARITY>  (11) 
0.90300000000000002

>  <r_sd_BIOSOLVEIT.LOGP>  (11) 
3.1478999999999999

>  <r_sd_BIOSOLVEIT.MOLECULAR\_WEIGHT>  (11) 
470.59399999999999

>  <r_sd_BIOSOLVEIT.TPSA>  (11) 
90.719999999999999

>  <i_epik_Tot_Q>  (11) 
1

>  <i_epik_Tot_abs_Q>  (11) 
1

>  <i_f3d_flags>  (11) 
0

>  <i_i_glide_confnum>  (11) 
3

>  <i_i_glide_lignum>  (11) 
1419

>  <i_i_glide_posenum>  (11) 
18

>  <i_i_glide_rotatable_bonds>  (11) 
12

>  <i_lp_mmshare_version>  (11) 
65135

>  <i_m_ct_format>  (11) 
2

>  <i_m_source_file_index>  (11) 
2985

>  <i_qp_#NandO>  (11) 
7

>  <i_qp_#acid>  (11) 
0

>  <i_qp_#amide>  (11) 
0

>  <i_qp_#amidine>  (11) 
0

>  <i_qp_#amine>  (11) 
1

>  <i_qp_#in34>  (11) 
0

>  <i_qp_#in56>  (11) 
22

>  <i_qp_#metab>  (11) 
10

>  <i_qp_#nonHatm>  (11) 
35

>  <i_qp_#noncon>  (11) 
0

>  <i_qp_#ringatoms>  (11) 
22

>  <i_qp_#rotor>  (11) 
11

>  <i_qp_#rtvFG>  (11) 
0

>  <i_qp_#stars>  (11) 
5

>  <i_qp_CNS>  (11) 
-1

>  <i_qp_HumanOralAbsorption>  (11) 
1

>  <i_qp_RuleOfFive>  (11) 
0

>  <i_qp_RuleOfThree>  (11) 
1

>  <i_sd_BIOSOLVEIT.INFINISEE\_RESULT\_RANK>  (11) 
84160

>  <i_sd_version>  (11) 
0

>  <b_lp_Chiralities_Consistent>  (11) 
1

>  <b_sd_chiral_flag>  (11) 
0

>  <acquisition_id>  (11) 
ATP-ACQ-0011

>  <canonical_id>  (11) 
ATP-HTVS-1952D56C5A08

>  <compound_code>  (11) 
95489

>  <title>  (11) 
rxn502b____EMOL5415347____EMOL7515103____EMOL324170366

>  <variant>  (11) 
95489-1

>  <selection_arm>  (11) 
descriptor_diversity

>  <priority>  (11) 
P0

>  <wave>  (11) 
1

>  <source_file>  (11) 
运行/运行/ATP-VSW/ATP-VSW-DOCK_HTVS_1-001_lib/ATP-VSW-DOCK_HTVS_1-001_lib

>  <canonical_smiles>  (11) 
C[NH+](C)Cc1ccccc1C(=O)Nc1ncc(NCc2ccc(NCCO)cc2)c2ccccc12

$$$$
ATP-ACQ-0012
     RDKit          3D

 52 55  0  0  0  0  0  0  0  0999 V2000
  200.1017  187.5419  153.3974 F   0  0  0  0  0  0  0  0  0  0  0  0
  199.2579  187.4605  154.4570 C   0  0  0  0  0  0  0  0  0  0  0  0
  198.3693  186.3629  154.6184 C   0  0  0  0  0  0  0  0  0  0  0  0
  197.5015  186.3582  155.7403 C   0  0  0  0  0  0  0  0  0  0  0  0
  197.5117  187.4168  156.6646 C   0  0  0  0  0  0  0  0  0  0  0  0
  196.6052  187.4410  157.6642 F   0  0  0  0  0  0  0  0  0  0  0  0
  198.4275  188.4696  156.5251 C   0  0  0  0  0  0  0  0  0  0  0  0
  199.2916  188.4960  155.4164 C   0  0  0  0  0  0  0  0  0  0  0  0
  198.3073  185.2608  153.5838 C   0  0  0  0  0  0  0  0  0  0  0  0
  198.7233  185.4405  152.4345 O   0  0  0  0  0  0  0  0  0  0  0  0
  197.7660  184.1123  154.0308 N   0  0  0  0  0  0  0  0  0  0  0  0
  197.6576  182.8470  153.3904 C   0  0  0  0  0  0  0  0  0  0  0  0
  198.1766  182.6158  152.1647 N   0  0  0  0  0  0  0  0  0  0  0  0
  198.0860  181.3977  151.5957 C   0  0  0  0  0  0  0  0  0  0  0  0
  197.4343  180.3213  152.2500 C   0  0  0  0  0  0  0  0  0  0  0  0
  196.8819  180.5394  153.5237 C   0  0  0  0  0  0  0  0  0  0  0  0
  197.0027  181.8104  154.1154 C   0  0  0  0  0  0  0  0  0  0  0  0
  196.4578  182.0001  155.4578 C   0  0  0  0  0  0  0  0  0  0  0  0
  195.9934  182.1779  156.5745 C   0  0  0  0  0  0  0  0  0  0  0  0
  195.4175  182.4432  157.9090 C   0  0  1  0  0  0  0  0  0  0  0  0
  194.3553  181.4339  158.0880 N   0  0  2  0  0  0  0  0  0  0  0  0
  196.4644  182.3643  159.0341 C   0  0  1  0  0  0  0  0  0  0  0  0
  197.4287  183.5405  159.0529 C   0  0  0  0  0  0  0  0  0  0  0  0
  198.7343  183.4097  158.5327 C   0  0  0  0  0  0  0  0  0  0  0  0
  199.6282  184.4949  158.5818 C   0  0  0  0  0  0  0  0  0  0  0  0
  200.8784  184.3653  158.0812 F   0  0  0  0  0  0  0  0  0  0  0  0
  199.2172  185.7177  159.1383 C   0  0  0  0  0  0  0  0  0  0  0  0
  197.9135  185.8510  159.6554 C   0  0  0  0  0  0  0  0  0  0  0  0
  197.0163  184.7676  159.6063 C   0  0  0  0  0  0  0  0  0  0  0  0
  197.3466  179.0570  151.6347 C   0  0  0  0  0  0  0  0  0  0  0  0
  197.9102  178.8543  150.3605 C   0  0  0  0  0  0  0  0  0  0  0  0
  198.5638  179.9143  149.7056 C   0  0  0  0  0  0  0  0  0  0  0  0
  198.6493  181.1750  150.3259 C   0  0  0  0  0  0  0  0  0  0  0  0
  193.7138  181.5648  157.3092 H   0  0  0  0  0  0  0  0  0  0  0  0
  193.8888  181.5684  158.9740 H   0  0  0  0  0  0  0  0  0  0  0  0
  196.7896  185.5690  155.9176 H   0  0  0  0  0  0  0  0  0  0  0  0
  198.4427  189.2720  157.2492 H   0  0  0  0  0  0  0  0  0  0  0  0
  199.9707  189.3287  155.2813 H   0  0  0  0  0  0  0  0  0  0  0  0
  197.4058  184.1307  154.9684 H   0  0  0  0  0  0  0  0  0  0  0  0
  196.3904  179.7351  154.0545 H   0  0  0  0  0  0  0  0  0  0  0  0
  194.9373  183.4250  157.8916 H   0  0  0  0  0  0  0  0  0  0  0  0
  195.9600  182.3352  159.9977 H   0  0  0  0  0  0  0  0  0  0  0  0
  197.0178  181.4296  158.9394 H   0  0  0  0  0  0  0  0  0  0  0  0
  199.0642  182.4745  158.1104 H   0  0  0  0  0  0  0  0  0  0  0  0
  199.8901  186.5632  159.1474 H   0  0  0  0  0  0  0  0  0  0  0  0
  197.5947  186.7955  160.0713 H   0  0  0  0  0  0  0  0  0  0  0  0
  196.0123  184.8917  159.9865 H   0  0  0  0  0  0  0  0  0  0  0  0
  196.8497  178.2372  152.1342 H   0  0  0  0  0  0  0  0  0  0  0  0
  197.8501  177.8849  149.8868 H   0  0  0  0  0  0  0  0  0  0  0  0
  199.0011  179.7611  148.7287 H   0  0  0  0  0  0  0  0  0  0  0  0
  199.1561  181.9886  149.8271 H   0  0  0  0  0  0  0  0  0  0  0  0
  194.7497  180.4879  158.0591 H   0  0  0  0  0  0  0  0  0  0  0  0
  1  2  1  0
  2  3  2  0
  2  8  1  0
  3  4  1  0
  3  9  1  0
  4  5  2  0
  4 36  1  0
  5  6  1  0
  5  7  1  0
  7  8  2  0
  7 37  1  0
  8 38  1  0
  9 10  2  0
  9 11  1  0
 11 12  1  0
 11 39  1  0
 12 13  2  0
 12 17  1  0
 13 14  1  0
 14 15  1  0
 14 33  2  0
 15 16  1  0
 15 30  2  0
 16 17  2  0
 16 40  1  0
 17 18  1  0
 18 19  3  0
 19 20  1  0
 20 21  1  0
 20 22  1  0
 20 41  1  6
 21 34  1  6
 21 35  1  0
 21 52  1  0
 22 23  1  0
 22 42  1  1
 22 43  1  0
 23 24  1  0
 23 29  2  0
 24 25  2  0
 24 44  1  0
 25 26  1  0
 25 27  1  0
 27 28  2  0
 27 45  1  0
 28 29  1  0
 28 46  1  0
 29 47  1  0
 30 31  1  0
 30 48  1  0
 31 32  2  0
 31 49  1  0
 32 33  1  0
 32 50  1  0
 33 51  1  0
M  CHG  1  21   1
M  END
>  <s_epik_cmdline>  (12) 
J2VwaWtfcHl0aG9uJywgJy1waCcsICc3LjAwMDAwMCcsICctcGh0JywgJzIuMDAwMDAwJywgJy1tcycsICcxNicsICctdG4nLCAnOCcsICctbWEnLCAnMjAwJywgJy1pbWFlJywgJzxpbmZpbGUubWFlPicsICctb21hZScsICc8b3V0ZmlsZS5tYWU+Jw==

>  <s_epik_input>  (12) 
W2NIXTFbY0hdYyhGKVtjSF1jKGMxRilDKD1PKVtOSF1jKG4yKWMoW2NIXWMoYzIzKVtjSF1bY0hdW2NIXVtjSF0zKUMjQ1tDQEBIXShbTkgyXSlbQ0gyXWM0W2NIXWMoRilbY0hdW2NIXVtjSF00

>  <s_i_glide_gridfile>  (12) 
ATP-Grid

>  <s_lp_Force_Field>  (12) 
OPLS_2005

>  <s_lp_Variant>  (12) 
rxn503b____EMOL491633____EMOL44466703____EMOL313110234-4

>  <s_lp_label>  (12) 
2772_sdstereoexpander_2_neutralizer_1_epik_2_stereoizer_1

>  <s_m_source_file>  (12) 
ATP-VSW-LIGPREP-001-in.maegz

>  <s_sd_BIOSOLVEIT.INFINISEE\_QUERY\_NAME>  (12) 
Ref-Lig

>  <s_sd_BIOSOLVEIT.INFINISEE\_QUERY\_SMILES>  (12) 
S(c1nc2c(cc1C[NH2+]Cc3ccc(cc3)C[NH+](C)C)cccc2)Cc4ccccc4

>  <s_sd_BIOSOLVEIT.INFINISEE\_REACTION\_NAME>  (12) 
rxn503b

>  <s_sd_BIOSOLVEIT.INFINISEE\_REAGENT1\_NAME>  (12) 
EMOL491633

>  <s_sd_BIOSOLVEIT.INFINISEE\_REAGENT1\_SMILES>  (12) 
Fc1c(cc(F)cc1)C(=O)O

>  <s_sd_BIOSOLVEIT.INFINISEE\_REAGENT2\_NAME>  (12) 
EMOL44466703

>  <s_sd_BIOSOLVEIT.INFINISEE\_REAGENT2\_SMILES>  (12) 
Brc1c(nc2c(c1)cccc2)N

>  <s_sd_BIOSOLVEIT.INFINISEE\_REAGENT3\_NAME>  (12) 
EMOL313110234

>  <s_sd_BIOSOLVEIT.INFINISEE\_REAGENT3\_SMILES>  (12) 
Fc1cc(ccc1)CC(N)C#C

>  <s_sd_BIOSOLVEIT.INFINISEE\_SPACE>  (12) 
eXplore_7tr_2022-12

>  <s_vsw_compound_code>  (12) 
88673

>  <s_vsw_variant>  (12) 
88673-4

>  <r_epik_Charging_Adjusted_Penalty>  (12) 
1.22591159016581

>  <r_epik_Ionization_Penalty>  (12) 
0.61309999999999998

>  <r_epik_Ionization_Penalty_Charging>  (12) 
0.61299999999999999

>  <r_epik_Ionization_Penalty_Neutral>  (12) 
0.00020000000000000001

>  <r_epik_State_Penalty>  (12) 
0.61299999999999999

>  <r_i_docking_score>  (12) 
-5.0640072206641804

>  <r_i_glide_ecoul>  (12) 
-11.581933021545399

>  <r_i_glide_eff_state_penalty>  (12) 
0.61299999999999999

>  <r_i_glide_einternal>  (12) 
2.85350894927979

>  <r_i_glide_emodel>  (12) 
-62.904257658117302

>  <r_i_glide_energy>  (12) 
-41.869652748107903

>  <r_i_glide_erotb>  (12) 
0.42179665442063402

>  <r_i_glide_esite>  (12) 
-0.112034949509704

>  <r_i_glide_evdw>  (12) 
-30.2877197265625

>  <r_i_glide_gscore>  (12) 
-5.67700722066418

>  <r_i_glide_hbond>  (12) 
-0.31277344649369199

>  <r_i_glide_ligand_efficiency>  (12) 
-0.153454764262551

>  <r_i_glide_ligand_efficiency_ln>  (12) 
-1.1262089858495901

>  <r_i_glide_ligand_efficiency_sa>  (12) 
-0.49221142389987499

>  <r_i_glide_lipo>  (12) 
-1.14354886960313

>  <r_i_glide_metal>  (12) 
-0

>  <r_i_glide_rewards>  (12) 
-1.2787706699183601

>  <r_lp_Energy>  (12) 
23.446842

>  <r_qp_ACxDN^.5/SA>  (12) 
0.0110017

>  <r_qp_CIQPlogS>  (12) 
-6.5270000000000001

>  <r_qp_EA(eV)>  (12) 
1.0389999999999999

>  <r_qp_FISA>  (12) 
112.253

>  <r_qp_FOSA>  (12) 
51.597999999999999

>  <r_qp_IP(eV)>  (12) 
8.734

>  <r_qp_Jm>  (12) 
0.0011087719050808999

>  <r_qp_PISA>  (12) 
453.06

>  <r_qp_PSA>  (12) 
70.689999999999998

>  <r_qp_PercentHumanOralAbsorption>  (12) 
96.613

>  <r_qp_QPPCaco>  (12) 
212.965

>  <r_qp_QPPMDCK>  (12) 
326.35500000000002

>  <r_qp_QPlogBB>  (12) 
-0.36099999999999999

>  <r_qp_QPlogHERG>  (12) 
-7.4100000000000001

>  <r_qp_QPlogKhsa>  (12) 
0.82799999999999996

>  <r_qp_QPlogKp>  (12) 
-3.383

>  <r_qp_QPlogPC16>  (12) 
14.422000000000001

>  <r_qp_QPlogPo/w>  (12) 
4.7809999999999997

>  <r_qp_QPlogPoct>  (12) 
23.469999999999999

>  <r_qp_QPlogPw>  (12) 
12.584

>  <r_qp_QPlogS>  (12) 
-5.2210000000000001

>  <r_qp_QPpolrz>  (12) 
45.902000000000001

>  <r_qp_SASA>  (12) 
708.45500000000004

>  <r_qp_SAamideO>  (12) 
0

>  <r_qp_SAfluorine>  (12) 
91.543999999999997

>  <r_qp_WPSA>  (12) 
91.543999999999997

>  <r_qp_accptHB>  (12) 
4.5

>  <r_qp_dip^2/V>  (12) 
0.059005299999999997

>  <r_qp_dipole>  (12) 
8.7750000000000004

>  <r_qp_donorHB>  (12) 
3

>  <r_qp_glob>  (12) 
0.81516670000000002

>  <r_qp_mol_MW>  (12) 
445.44299999999998

>  <r_qp_volume>  (12) 
1304.9400000000001

>  <r_sd_BIOSOLVEIT.INFINISEE\_FTREES\_SIMILARITY>  (12) 
0.90700000000000003

>  <r_sd_BIOSOLVEIT.LOGP>  (12) 
4.1090999999999998

>  <r_sd_BIOSOLVEIT.MOLECULAR\_WEIGHT>  (12) 
446.44999999999999

>  <r_sd_BIOSOLVEIT.TPSA>  (12) 
69.629999999999995

>  <i_epik_Tot_Q>  (12) 
1

>  <i_epik_Tot_abs_Q>  (12) 
1

>  <i_f3d_flags>  (12) 
0

>  <i_i_glide_confnum>  (12) 
4

>  <i_i_glide_lignum>  (12) 
1254

>  <i_i_glide_posenum>  (12) 
5

>  <i_i_glide_rotatable_bonds>  (12) 
7

>  <i_lp_mmshare_version>  (12) 
65135

>  <i_m_ct_format>  (12) 
2

>  <i_m_source_file_index>  (12) 
2772

>  <i_qp_#NandO>  (12) 
4

>  <i_qp_#acid>  (12) 
0

>  <i_qp_#amide>  (12) 
0

>  <i_qp_#amidine>  (12) 
0

>  <i_qp_#amine>  (12) 
1

>  <i_qp_#in34>  (12) 
0

>  <i_qp_#in56>  (12) 
22

>  <i_qp_#metab>  (12) 
4

>  <i_qp_#nonHatm>  (12) 
33

>  <i_qp_#noncon>  (12) 
0

>  <i_qp_#ringatoms>  (12) 
22

>  <i_qp_#rotor>  (12) 
7

>  <i_qp_#rtvFG>  (12) 
0

>  <i_qp_#stars>  (12) 
1

>  <i_qp_CNS>  (12) 
0

>  <i_qp_HumanOralAbsorption>  (12) 
3

>  <i_qp_RuleOfFive>  (12) 
0

>  <i_qp_RuleOfThree>  (12) 
0

>  <i_sd_BIOSOLVEIT.INFINISEE\_RESULT\_RANK>  (12) 
60497

>  <i_sd_version>  (12) 
0

>  <b_lp_Chiralities_Consistent>  (12) 
1

>  <b_sd_chiral_flag>  (12) 
0

>  <acquisition_id>  (12) 
ATP-ACQ-0012

>  <canonical_id>  (12) 
ATP-HTVS-AD7D334F30DB

>  <compound_code>  (12) 
88673

>  <title>  (12) 
rxn503b____EMOL491633____EMOL44466703____EMOL313110234

>  <variant>  (12) 
88673-4

>  <selection_arm>  (12) 
score_calibration

>  <priority>  (12) 
P0

>  <wave>  (12) 
1

>  <source_file>  (12) 
运行/运行/ATP-VSW/ATP-VSW-DOCK_HTVS_1-001_lib/ATP-VSW-DOCK_HTVS_1-001_lib

>  <canonical_smiles>  (12) 
[NH3+][C@H](C#Cc1cc2ccccc2nc1NC(=O)c1cc(F)ccc1F)Cc1cccc(F)c1

$$$$
ATP-ACQ-0013
     RDKit          3D

 53 55  0  0  0  0  0  0  0  0999 V2000
  196.9722  184.6371  147.7184 O   0  0  0  0  0  0  0  0  0  0  0  0
  197.1791  183.9841  148.8966 C   0  0  0  0  0  0  0  0  0  0  0  0
  196.3472  184.2447  149.9979 C   0  0  0  0  0  0  0  0  0  0  0  0
  196.5465  183.5750  151.2165 C   0  0  0  0  0  0  0  0  0  0  0  0
  197.5821  182.6210  151.3556 C   0  0  0  0  0  0  0  0  0  0  0  0
  197.7838  181.9274  152.6413 C   0  0  0  0  0  0  0  0  0  0  0  0
  199.0539  181.5231  152.8660 N   0  0  0  0  0  0  0  0  0  0  0  0
  199.3542  180.8998  154.0338 C   0  0  0  0  0  0  0  0  0  0  0  0
  198.3666  180.5963  155.0073 C   0  0  0  0  0  0  0  0  0  0  0  0
  197.0478  181.0353  154.7877 C   0  0  0  0  0  0  0  0  0  0  0  0
  196.7523  181.7237  153.5913 C   0  0  0  0  0  0  0  0  0  0  0  0
  198.7307  179.8369  156.2733 C   0  0  1  0  0  0  0  0  0  0  0  0
  199.1492  178.4462  156.0048 N   0  0  1  0  0  0  0  0  0  0  0  0
  200.5649  178.3280  155.5739 C   0  0  1  0  0  0  0  0  0  0  0  0
  200.8931  176.9024  155.2047 C   0  0  0  0  0  0  0  0  0  0  0  0
  200.6316  176.4401  153.8977 C   0  0  0  0  0  0  0  0  0  0  0  0
  200.9614  175.1196  153.5335 C   0  0  0  0  0  0  0  0  0  0  0  0
  201.5372  174.2551  154.4895 C   0  0  0  0  0  0  0  0  0  0  0  0
  201.7820  174.7343  155.7933 C   0  0  0  0  0  0  0  0  0  0  0  0
  201.4743  176.0564  156.1550 C   0  0  0  0  0  0  0  0  0  0  0  0
  201.9095  172.8226  154.1253 C   0  0  1  0  0  0  0  0  0  0  0  0
  203.3605  172.6403  153.8517 N   0  0  2  0  0  0  0  0  0  0  0  0
  204.2494  173.1253  154.9301 C   0  0  2  0  0  0  0  0  0  0  0  0
  203.7657  173.1650  152.5304 C   0  0  2  0  0  0  0  0  0  0  0  0
  198.4194  182.3778  150.2414 C   0  0  0  0  0  0  0  0  0  0  0  0
  198.2250  183.0498  149.0197 C   0  0  0  0  0  0  0  0  0  0  0  0
  198.9531  177.9072  156.8377 H   0  0  0  0  0  0  0  0  0  0  0  0
  196.2069  185.1914  147.7208 H   0  0  0  0  0  0  0  0  0  0  0  0
  195.5453  184.9615  149.9152 H   0  0  0  0  0  0  0  0  0  0  0  0
  195.9107  183.8086  152.0576 H   0  0  0  0  0  0  0  0  0  0  0  0
  200.3850  180.6264  154.1737 H   0  0  0  0  0  0  0  0  0  0  0  0
  196.2661  180.8799  155.5197 H   0  0  0  0  0  0  0  0  0  0  0  0
  195.7530  182.1048  153.4228 H   0  0  0  0  0  0  0  0  0  0  0  0
  199.4953  180.3692  156.8369 H   0  0  0  0  0  0  0  0  0  0  0  0
  197.8588  179.8096  156.9226 H   0  0  0  0  0  0  0  0  0  0  0  0
  200.7934  178.9163  154.6686 H   0  0  0  0  0  0  0  0  0  0  0  0
  201.2337  178.6698  156.3779 H   0  0  0  0  0  0  0  0  0  0  0  0
  200.1925  177.0912  153.1599 H   0  0  0  0  0  0  0  0  0  0  0  0
  200.7613  174.7692  152.5289 H   0  0  0  0  0  0  0  0  0  0  0  0
  202.2561  174.1000  156.5185 H   0  0  0  0  0  0  0  0  0  0  0  0
  201.7307  176.4270  157.1417 H   0  0  0  0  0  0  0  0  0  0  0  0
  201.6082  172.1637  154.9362 H   0  0  0  0  0  0  0  0  0  0  0  0
  201.3242  172.5046  153.2563 H   0  0  0  0  0  0  0  0  0  0  0  0
  204.2094  174.2076  155.0360 H   0  0  0  0  0  0  0  0  0  0  0  0
  205.3001  172.8838  154.7234 H   0  0  0  0  0  0  0  0  0  0  0  0
  203.9456  172.6620  155.8689 H   0  0  0  0  0  0  0  0  0  0  0  0
  203.5933  174.2423  152.4650 H   0  0  0  0  0  0  0  0  0  0  0  0
  203.2060  172.6825  151.7295 H   0  0  0  0  0  0  0  0  0  0  0  0
  204.8263  172.9885  152.3563 H   0  0  0  0  0  0  0  0  0  0  0  0
  199.2295  181.6617  150.3089 H   0  0  0  0  0  0  0  0  0  0  0  0
  198.8689  182.8422  148.1775 H   0  0  0  0  0  0  0  0  0  0  0  0
  203.4885  171.6169  153.8580 H   0  0  0  0  0  0  0  0  0  0  0  0
  198.5512  178.0695  155.2863 H   0  0  0  0  0  0  0  0  0  0  0  0
  1  2  1  0
  1 28  1  0
  2  3  1  0
  2 26  2  0
  3  4  2  0
  3 29  1  0
  4  5  1  0
  4 30  1  0
  5  6  1  0
  5 25  2  0
  6  7  1  0
  6 11  2  0
  7  8  2  0
  8  9  1  0
  8 31  1  0
  9 10  2  0
  9 12  1  0
 10 11  1  0
 10 32  1  0
 11 33  1  0
 12 13  1  0
 12 34  1  1
 12 35  1  0
 13 14  1  0
 13 27  1  1
 13 53  1  0
 14 15  1  0
 14 36  1  6
 14 37  1  0
 15 16  1  0
 15 20  2  0
 16 17  2  0
 16 38  1  0
 17 18  1  0
 17 39  1  0
 18 19  2  0
 18 21  1  0
 19 20  1  0
 19 40  1  0
 20 41  1  0
 21 22  1  0
 21 42  1  1
 21 43  1  0
 22 23  1  0
 22 24  1  0
 22 52  1  6
 23 44  1  1
 23 45  1  0
 23 46  1  0
 24 47  1  1
 24 48  1  0
 24 49  1  0
 25 26  1  0
 25 50  1  0
 26 51  1  0
M  CHG  2  13   1  22   1
M  END
>  <s_epik_cmdline>  (13) 
J2VwaWtfcHl0aG9uJywgJy1waCcsICc3LjAwMDAwMCcsICctcGh0JywgJzIuMDAwMDAwJywgJy1tcycsICcxNicsICctdG4nLCAnOCcsICctbWEnLCAnMjAwJywgJy1pbWFlJywgJzxpbmZpbGUubWFlPicsICctb21hZScsICc8b3V0ZmlsZS5tYWU+Jw==

>  <s_epik_input>  (13) 
W09IXWMxW2NIXVtjSF1jKFtjSF1bY0hdMSktYzJuW2NIXWMoW2NIXVtjSF0yKVtDSDJdW05IXVtDSDJdYzNbY0hdW2NIXWMoW2NIXVtjSF0zKVtDSDJdTihbQ0gzXSlbQ0gzXQ==

>  <s_i_glide_gridfile>  (13) 
ATP-Grid

>  <s_lp_Force_Field>  (13) 
OPLS_2005

>  <s_lp_Variant>  (13) 
WXDL_15E____QS5063____LN00244457____BT0555-1

>  <s_lp_label>  (13) 
627_sdstereoexpander_1_neutralizer_1_epik_1_stereoizer_1

>  <s_m_source_file>  (13) 
ATP-VSW-LIGPREP-002-in.maegz

>  <s_sd_BIOSOLVEIT.INFINISEE\_QUERY\_NAME>  (13) 
Ref-Lig

>  <s_sd_BIOSOLVEIT.INFINISEE\_QUERY\_SMILES>  (13) 
S(c1nc2c(cc1C[NH2+]Cc3ccc(cc3)C[NH+](C)C)cccc2)Cc4ccccc4

>  <s_sd_BIOSOLVEIT.INFINISEE\_REACTION\_NAME>  (13) 
WXDL_15E

>  <s_sd_BIOSOLVEIT.INFINISEE\_REAGENT1\_NAME>  (13) 
QS5063

>  <s_sd_BIOSOLVEIT.INFINISEE\_REAGENT1\_SMILES>  (13) 
O=Cc1ccc(cc1)CN(C)C

>  <s_sd_BIOSOLVEIT.INFINISEE\_REAGENT2\_NAME>  (13) 
LN00244457

>  <s_sd_BIOSOLVEIT.INFINISEE\_REAGENT2\_SMILES>  (13) 
Brc1ncc(cc1)CNC(=O)OC(C)(C)C

>  <s_sd_BIOSOLVEIT.INFINISEE\_REAGENT3\_NAME>  (13) 
BT0555

>  <s_sd_BIOSOLVEIT.INFINISEE\_REAGENT3\_SMILES>  (13) 
Oc1ccc(cc1)B(O)O

>  <s_sd_BIOSOLVEIT.INFINISEE\_SPACE>  (13) 
GalaXi_12bn_2023-03

>  <s_vsw_compound_code>  (13) 
20034

>  <s_vsw_variant>  (13) 
20034-1

>  <r_epik_Charging_Adjusted_Penalty>  (13) 
0.36260264626329503

>  <r_epik_Ionization_Penalty>  (13) 
0.18129999999999999

>  <r_epik_Ionization_Penalty_Charging>  (13) 
0.1799

>  <r_epik_Ionization_Penalty_Neutral>  (13) 
0.0014

>  <r_epik_State_Penalty>  (13) 
0.1827

>  <r_i_docking_score>  (13) 
-6.6614367029427797

>  <r_i_glide_ecoul>  (13) 
-20.883989334106399

>  <r_i_glide_eff_state_penalty>  (13) 
0.1827

>  <r_i_glide_einternal>  (13) 
3.3178658485412602

>  <r_i_glide_emodel>  (13) 
-75.011169116128798

>  <r_i_glide_energy>  (13) 
-45.189605712890597

>  <r_i_glide_erotb>  (13) 
0.93585446189056398

>  <r_i_glide_esite>  (13) 
-0.20000000000000001

>  <r_i_glide_evdw>  (13) 
-24.305616378784201

>  <r_i_glide_gscore>  (13) 
-6.8441367029427802

>  <r_i_glide_hbond>  (13) 
-0.62646890064982197

>  <r_i_glide_ligand_efficiency>  (13) 
-0.25620910395933799

>  <r_i_glide_ligand_efficiency_ln>  (13) 
-1.5644165517294699

>  <r_i_glide_ligand_efficiency_sa>  (13) 
-0.75901846234539405

>  <r_i_glide_lipo>  (13) 
-1.3542972269465201

>  <r_i_glide_metal>  (13) 
-0

>  <r_i_glide_rewards>  (13) 
-1.25134581818182

>  <r_lp_Energy>  (13) 
17.966108999999999

>  <r_lp_tautomer_probability>  (13) 
0.999999999997365

>  <r_qp_ACxDN^.5/SA>  (13) 
0.0102638

>  <r_qp_CIQPlogS>  (13) 
-3.1120000000000001

>  <r_qp_EA(eV)>  (13) 
0.45400000000000001

>  <r_qp_FISA>  (13) 
80.313000000000002

>  <r_qp_FOSA>  (13) 
250.41

>  <r_qp_IP(eV)>  (13) 
8.7789999999999999

>  <r_qp_Jm>  (13) 
0.00081218796813291002

>  <r_qp_PISA>  (13) 
392.654

>  <r_qp_PSA>  (13) 
52.308999999999997

>  <r_qp_PercentHumanOralAbsorption>  (13) 
84.254999999999995

>  <r_qp_QPPCaco>  (13) 
106.68300000000001

>  <r_qp_QPPMDCK>  (13) 
53.901000000000003

>  <r_qp_QPlogBB>  (13) 
-0.012999999999999999

>  <r_qp_QPlogHERG>  (13) 
-8.4960000000000004

>  <r_qp_QPlogKhsa>  (13) 
0.57399999999999995

>  <r_qp_QPlogKp>  (13) 
-4.9740000000000002

>  <r_qp_QPlogPC16>  (13) 
13.712999999999999

>  <r_qp_QPlogPo/w>  (13) 
3.5880000000000001

>  <r_qp_QPlogPoct>  (13) 
19.489000000000001

>  <r_qp_QPlogPw>  (13) 
11.013

>  <r_qp_QPlogS>  (13) 
-3.6579999999999999

>  <r_qp_QPpolrz>  (13) 
42.420000000000002

>  <r_qp_SASA>  (13) 
723.37699999999995

>  <r_qp_SAamideO>  (13) 
0

>  <r_qp_SAfluorine>  (13) 
0

>  <r_qp_WPSA>  (13) 
0

>  <r_qp_accptHB>  (13) 
5.25

>  <r_qp_dip^2/V>  (13) 
0.0027087999999999999

>  <r_qp_dipole>  (13) 
1.839

>  <r_qp_donorHB>  (13) 
2

>  <r_qp_glob>  (13) 
0.77512389999999998

>  <r_qp_mol_MW>  (13) 
347.459

>  <r_qp_volume>  (13) 
1248.4069999999999

>  <r_sd_BIOSOLVEIT.INFINISEE\_FTREES\_SIMILARITY>  (13) 
0.91700000000000004

>  <r_sd_BIOSOLVEIT.LOGP>  (13) 
1.3623000000000001

>  <r_sd_BIOSOLVEIT.MOLECULAR\_WEIGHT>  (13) 
349.47500000000002

>  <r_sd_BIOSOLVEIT.TPSA>  (13) 
54.170000000000002

>  <i_epik_Tot_Q>  (13) 
2

>  <i_epik_Tot_abs_Q>  (13) 
2

>  <i_f3d_flags>  (13) 
0

>  <i_i_glide_confnum>  (13) 
7

>  <i_i_glide_lignum>  (13) 
174

>  <i_i_glide_posenum>  (13) 
19

>  <i_i_glide_rotatable_bonds>  (13) 
8

>  <i_lp_mmshare_version>  (13) 
65135

>  <i_m_ct_format>  (13) 
2

>  <i_m_source_file_index>  (13) 
627

>  <i_qp_#NandO>  (13) 
4

>  <i_qp_#acid>  (13) 
0

>  <i_qp_#amide>  (13) 
0

>  <i_qp_#amidine>  (13) 
0

>  <i_qp_#amine>  (13) 
2

>  <i_qp_#in34>  (13) 
0

>  <i_qp_#in56>  (13) 
18

>  <i_qp_#metab>  (13) 
7

>  <i_qp_#nonHatm>  (13) 
26

>  <i_qp_#noncon>  (13) 
0

>  <i_qp_#ringatoms>  (13) 
18

>  <i_qp_#rotor>  (13) 
8

>  <i_qp_#rtvFG>  (13) 
0

>  <i_qp_#stars>  (13) 
0

>  <i_qp_CNS>  (13) 
1

>  <i_qp_HumanOralAbsorption>  (13) 
2

>  <i_qp_RuleOfFive>  (13) 
0

>  <i_qp_RuleOfThree>  (13) 
1

>  <i_sd_BIOSOLVEIT.INFINISEE\_RESULT\_RANK>  (13) 
24092

>  <i_sd_version>  (13) 
0

>  <b_lp_Chiralities_Consistent>  (13) 
1

>  <b_sd_chiral_flag>  (13) 
0

>  <acquisition_id>  (13) 
ATP-ACQ-0013

>  <canonical_id>  (13) 
ATP-HTVS-CEDCE5F1BEB7

>  <compound_code>  (13) 
20034

>  <title>  (13) 
WXDL_15E____QS5063____LN00244457____BT0555

>  <variant>  (13) 
20034-1

>  <selection_arm>  (13) 
exploitation

>  <priority>  (13) 
P0

>  <wave>  (13) 
1

>  <source_file>  (13) 
运行/运行/ATP-VSW/ATP-VSW-DOCK_HTVS_1-002_lib.maegz

>  <canonical_smiles>  (13) 
C[NH+](C)Cc1ccc(C[NH2+]Cc2ccc(-c3ccc(O)cc3)nc2)cc1

$$$$
ATP-ACQ-0014
     RDKit          3D

 64 67  0  0  0  0  0  0  0  0999 V2000
  197.7618  185.8370  157.1582 S   0  0  0  0  0  0  0  0  0  0  0  0
  196.7030  184.6822  157.9645 C   0  0  0  0  0  0  0  0  0  0  0  0
  196.7007  183.4396  157.2638 C   0  0  0  0  0  0  0  0  0  0  0  0
  195.9085  182.4046  157.8322 C   0  0  0  0  0  0  0  0  0  0  0  0
  195.1300  182.6001  158.9810 C   0  0  0  0  0  0  0  0  0  0  0  0
  195.1321  183.8439  159.6397 C   0  0  0  0  0  0  0  0  0  0  0  0
  195.9425  184.8881  159.1309 C   0  0  0  0  0  0  0  0  0  0  0  0
  197.5480  183.4663  156.0833 C   0  0  0  0  0  0  0  0  0  0  0  0
  197.6799  182.3637  155.2381 N   0  0  0  0  0  0  0  0  0  0  0  0
  196.6021  181.4737  154.8464 C   0  0  1  0  0  0  0  0  0  0  0  0
  196.7291  181.1485  153.3810 C   0  0  0  0  0  0  0  0  0  0  0  0
  196.6186  182.1868  152.4378 C   0  0  0  0  0  0  0  0  0  0  0  0
  196.7137  181.9136  151.0605 C   0  0  0  0  0  0  0  0  0  0  0  0
  196.9115  180.5852  150.6298 C   0  0  0  0  0  0  0  0  0  0  0  0
  197.0374  179.5427  151.5704 C   0  0  0  0  0  0  0  0  0  0  0  0
  196.9528  179.8281  152.9474 C   0  0  0  0  0  0  0  0  0  0  0  0
  196.5883  183.0415  150.0512 C   0  0  1  0  0  0  0  0  0  0  0  0
  197.4709  184.1794  150.2974 N   0  0  0  0  0  0  0  0  0  0  0  0
  197.2150  185.2058  149.2951 C   0  0  2  0  0  0  0  0  0  0  0  0
  198.8705  183.7761  150.2098 C   0  0  2  0  0  0  0  0  0  0  0  0
  198.2380  184.6596  155.9606 C   0  0  0  0  0  0  0  0  0  0  0  0
  199.2673  185.1595  155.0030 C   0  0  0  0  0  0  0  0  0  0  0  0
  199.1458  186.3099  154.5888 O   0  0  0  0  0  0  0  0  0  0  0  0
  200.3267  184.3865  154.6378 N   0  0  0  0  0  0  0  0  0  0  0  0
  200.5299  183.0308  155.0504 C   0  0  0  0  0  0  0  0  0  0  0  0
  200.4641  182.6522  156.4019 C   0  0  0  0  0  0  0  0  0  0  0  0
  200.5723  181.2899  156.7560 C   0  0  0  0  0  0  0  0  0  0  0  0
  200.7989  180.3015  155.7742 C   0  0  0  0  0  0  0  0  0  0  0  0
  200.9091  180.6923  154.4224 C   0  0  0  0  0  0  0  0  0  0  0  0
  200.7851  182.0462  154.0637 C   0  0  0  0  0  0  0  0  0  0  0  0
  200.8842  178.8546  156.1308 C   0  0  0  0  0  0  0  0  0  0  0  0
  201.0977  177.9625  155.3047 O   0  0  0  0  0  0  0  0  0  0  0  0
  200.7302  178.6323  157.4473 O   0  0  0  0  0  0  0  0  0  0  0  0
  200.7767  177.3094  157.9459 C   0  0  2  0  0  0  0  0  0  0  0  0
  201.2922  184.9512  153.6848 C   0  0  2  0  0  0  0  0  0  0  0  0
  195.9013  181.4195  157.3866 H   0  0  0  0  0  0  0  0  0  0  0  0
  194.5187  181.7795  159.3418 H   0  0  0  0  0  0  0  0  0  0  0  0
  194.5080  184.0021  160.5035 H   0  0  0  0  0  0  0  0  0  0  0  0
  195.9641  185.8480  159.6348 H   0  0  0  0  0  0  0  0  0  0  0  0
  198.6114  182.0942  154.9718 H   0  0  0  0  0  0  0  0  0  0  0  0
  196.6503  180.5569  155.4390 H   0  0  0  0  0  0  0  0  0  0  0  0
  195.6237  181.9255  155.0163 H   0  0  0  0  0  0  0  0  0  0  0  0
  196.4590  183.1991  152.7839 H   0  0  0  0  0  0  0  0  0  0  0  0
  196.9781  180.3605  149.5732 H   0  0  0  0  0  0  0  0  0  0  0  0
  197.2043  178.5289  151.2414 H   0  0  0  0  0  0  0  0  0  0  0  0
  197.0603  179.0379  153.6729 H   0  0  0  0  0  0  0  0  0  0  0  0
  196.7576  182.6473  149.0467 H   0  0  0  0  0  0  0  0  0  0  0  0
  195.5555  183.3917  150.0915 H   0  0  0  0  0  0  0  0  0  0  0  0
  197.8492  186.0754  149.4716 H   0  0  0  0  0  0  0  0  0  0  0  0
  196.1779  185.5367  149.3309 H   0  0  0  0  0  0  0  0  0  0  0  0
  197.4111  184.8387  148.2860 H   0  0  0  0  0  0  0  0  0  0  0  0
  199.5259  184.6310  150.3774 H   0  0  0  0  0  0  0  0  0  0  0  0
  199.1020  183.3483  149.2332 H   0  0  0  0  0  0  0  0  0  0  0  0
  199.1113  183.0325  150.9713 H   0  0  0  0  0  0  0  0  0  0  0  0
  200.3308  183.3829  157.1942 H   0  0  0  0  0  0  0  0  0  0  0  0
  200.4046  181.0193  157.7826 H   0  0  0  0  0  0  0  0  0  0  0  0
  201.0217  179.9542  153.6431 H   0  0  0  0  0  0  0  0  0  0  0  0
  200.7886  182.3117  153.0178 H   0  0  0  0  0  0  0  0  0  0  0  0
  200.6497  177.3131  159.0289 H   0  0  0  0  0  0  0  0  0  0  0  0
  201.7349  176.8427  157.7121 H   0  0  0  0  0  0  0  0  0  0  0  0
  199.9767  176.7118  157.5067 H   0  0  0  0  0  0  0  0  0  0  0  0
  202.1552  184.3012  153.5470 H   0  0  0  0  0  0  0  0  0  0  0  0
  201.6834  185.9029  154.0577 H   0  0  0  0  0  0  0  0  0  0  0  0
  200.8406  185.1208  152.7031 H   0  0  0  0  0  0  0  0  0  0  0  0
  1  2  1  0
  1 21  1  0
  2  3  1  0
  2  7  2  0
  3  4  2  0
  3  8  1  0
  4  5  1  0
  4 36  1  0
  5  6  2  0
  5 37  1  0
  6  7  1  0
  6 38  1  0
  7 39  1  0
  8  9  1  0
  8 21  2  0
  9 10  1  0
  9 40  1  0
 10 11  1  0
 10 41  1  1
 10 42  1  0
 11 12  2  0
 11 16  1  0
 12 13  1  0
 12 43  1  0
 13 14  2  0
 13 17  1  0
 14 15  1  0
 14 44  1  0
 15 16  2  0
 15 45  1  0
 16 46  1  0
 17 18  1  0
 17 47  1  6
 17 48  1  0
 18 19  1  0
 18 20  1  0
 19 49  1  1
 19 50  1  0
 19 51  1  0
 20 52  1  1
 20 53  1  0
 20 54  1  0
 21 22  1  0
 22 23  2  0
 22 24  1  0
 24 25  1  0
 24 35  1  0
 25 26  1  0
 25 30  2  0
 26 27  2  0
 26 55  1  0
 27 28  1  0
 27 56  1  0
 28 29  2  0
 28 31  1  0
 29 30  1  0
 29 57  1  0
 30 58  1  0
 31 32  2  0
 31 33  1  0
 33 34  1  0
 34 59  1  1
 34 60  1  0
 34 61  1  0
 35 62  1  6
 35 63  1  0
 35 64  1  0
M  END
>  <s_epik_Chemistry_Notes>  (14) 
This compound has an ester and may undergo hydrolysis at high or low pH.

>  <s_epik_cmdline>  (14) 
J2VwaWtfcHl0aG9uJywgJy1waCcsICc3LjAwMDAwMCcsICctcGh0JywgJzIuMDAwMDAwJywgJy1tcycsICcxNicsICctdG4nLCAnOCcsICctbWEnLCAnMjAwJywgJy1pbWFlJywgJzxpbmZpbGUubWFlPicsICctb21hZScsICc8b3V0ZmlsZS5tYWU+Jw==

>  <s_epik_input>  (14) 
W0NIM11PQyg9TyljKFtjSF1bY0hdMSlbY0hdW2NIXWMxTihbQ0gzXSlDKD1PKWMoczIpYyhjKGMyMylbY0hdW2NIXVtjSF1bY0hdMylbTkhdW0NIMl1jNFtjSF1jKFtjSF1bY0hdW2NIXTQpW0NIMl1OKFtDSDNdKVtDSDNd

>  <s_i_glide_gridfile>  (14) 
ATP-Grid

>  <s_lp_Force_Field>  (14) 
OPLS_2005

>  <s_lp_Variant>  (14) 
rxn512c____EMOL884318____EMOL523944____EMOL2873214-2

>  <s_lp_label>  (14) 
2238_sdstereoexpander_1_neutralizer_1_epik_2_stereoizer_1

>  <s_m_source_file>  (14) 
ATP-VSW-LIGPREP-001-in.maegz

>  <s_sd_BIOSOLVEIT.INFINISEE\_QUERY\_NAME>  (14) 
Ref-Lig

>  <s_sd_BIOSOLVEIT.INFINISEE\_QUERY\_SMILES>  (14) 
S(c1nc2c(cc1C[NH2+]Cc3ccc(cc3)C[NH+](C)C)cccc2)Cc4ccccc4

>  <s_sd_BIOSOLVEIT.INFINISEE\_REACTION\_NAME>  (14) 
rxn512c

>  <s_sd_BIOSOLVEIT.INFINISEE\_REAGENT1\_NAME>  (14) 
EMOL884318

>  <s_sd_BIOSOLVEIT.INFINISEE\_REAGENT1\_SMILES>  (14) 
O=C(OC)c1ccc(NC)cc1

>  <s_sd_BIOSOLVEIT.INFINISEE\_REAGENT2\_NAME>  (14) 
EMOL523944

>  <s_sd_BIOSOLVEIT.INFINISEE\_REAGENT2\_SMILES>  (14) 
ClC=1c2c(SC1C(=O)O)cccc2

>  <s_sd_BIOSOLVEIT.INFINISEE\_REAGENT3\_NAME>  (14) 
EMOL2873214

>  <s_sd_BIOSOLVEIT.INFINISEE\_REAGENT3\_SMILES>  (14) 
N(Cc1cc(ccc1)CN)(C)C

>  <s_sd_BIOSOLVEIT.INFINISEE\_SPACE>  (14) 
eXplore_7tr_2022-12

>  <s_vsw_compound_code>  (14) 
71585

>  <s_vsw_variant>  (14) 
71585-2

>  <r_epik_Charging_Adjusted_Penalty>  (14) 
1.5746020351915

>  <r_epik_Ionization_Penalty>  (14) 
1.5746

>  <r_epik_Ionization_Penalty_Charging>  (14) 
0

>  <r_epik_Ionization_Penalty_Neutral>  (14) 
1.5746

>  <r_epik_State_Penalty>  (14) 
1.5746

>  <r_i_docking_score>  (14) 
-1.0755973152635701

>  <r_i_glide_ecoul>  (14) 
0.32468026876449602

>  <r_i_glide_eff_state_penalty>  (14) 
1.5746

>  <r_i_glide_einternal>  (14) 
6.4640007019043004

>  <r_i_glide_emodel>  (14) 
-41.6711770656472

>  <r_i_glide_energy>  (14) 
-38.338012754917102

>  <r_i_glide_erotb>  (14) 
0.68404946877456196

>  <r_i_glide_esite>  (14) 
-0.020672534051090999

>  <r_i_glide_evdw>  (14) 
-38.662693023681598

>  <r_i_glide_gscore>  (14) 
-2.6501973152635698

>  <r_i_glide_hbond>  (14) 
0

>  <r_i_glide_ligand_efficiency>  (14) 
-0.030731351864673399

>  <r_i_glide_ligand_efficiency_ln>  (14) 
-0.23611748229659801

>  <r_i_glide_ligand_efficiency_sa>  (14) 
-0.10052428963195099

>  <r_i_glide_lipo>  (14) 
-1.34469273002672

>  <r_i_glide_metal>  (14) 
-0

>  <r_i_glide_rewards>  (14) 
-0.084448909090908894

>  <r_lp_Energy>  (14) 
51.408917000000002

>  <r_qp_ACxDN^.5/SA>  (14) 
0

>  <r_qp_CIQPlogS>  (14) 
-5.3440000000000003

>  <r_qp_EA(eV)>  (14) 
0.68000000000000005

>  <r_qp_FISA>  (14) 
93.137

>  <r_qp_FOSA>  (14) 
359.26499999999999

>  <r_qp_IP(eV)>  (14) 
7.9409999999999998

>  <r_qp_Jm>  (14) 
1.5337826060819299e-05

>  <r_qp_PISA>  (14) 
379.28800000000001

>  <r_qp_PSA>  (14) 
77.197000000000003

>  <r_qp_PercentHumanOralAbsorption>  (14) 
90.099999999999994

>  <r_qp_QPPCaco>  (14) 
80.626999999999995

>  <r_qp_QPPMDCK>  (14) 
57.356000000000002

>  <r_qp_QPlogBB>  (14) 
-0.13200000000000001

>  <r_qp_QPlogHERG>  (14) 
-8.7119999999999997

>  <r_qp_QPlogKhsa>  (14) 
0.95199999999999996

>  <r_qp_QPlogKp>  (14) 
-5.2569999999999997

>  <r_qp_QPlogPC16>  (14) 
16.597000000000001

>  <r_qp_QPlogPo/w>  (14) 
4.9580000000000002

>  <r_qp_QPlogPoct>  (14) 
22.562999999999999

>  <r_qp_QPlogPw>  (14) 
10.144

>  <r_qp_QPlogS>  (14) 
-5.2450000000000001

>  <r_qp_QPpolrz>  (14) 
55.000999999999998

>  <r_qp_SASA>  (14) 
860.61300000000006

>  <r_qp_SAamideO>  (14) 
0

>  <r_qp_SAfluorine>  (14) 
0

>  <r_qp_WPSA>  (14) 
28.922999999999998

>  <r_qp_accptHB>  (14) 
7

>  <r_qp_dip^2/V>  (14) 
0.035012500000000002

>  <r_qp_dipole>  (14) 
7.4050000000000002

>  <r_qp_donorHB>  (14) 
0

>  <r_qp_glob>  (14) 
0.75778429999999997

>  <r_qp_mol_MW>  (14) 
487.61500000000001

>  <r_qp_volume>  (14) 
1565.9670000000001

>  <r_sd_BIOSOLVEIT.INFINISEE\_FTREES\_SIMILARITY>  (14) 
0.92700000000000005

>  <r_sd_BIOSOLVEIT.LOGP>  (14) 
4.2210999999999999

>  <r_sd_BIOSOLVEIT.MOLECULAR\_WEIGHT>  (14) 
488.62799999999999

>  <r_sd_BIOSOLVEIT.TPSA>  (14) 
63.079999999999998

>  <i_epik_Tot_Q>  (14) 
0

>  <i_epik_Tot_abs_Q>  (14) 
0

>  <i_f3d_flags>  (14) 
0

>  <i_i_glide_confnum>  (14) 
9

>  <i_i_glide_lignum>  (14) 
760

>  <i_i_glide_posenum>  (14) 
2

>  <i_i_glide_rotatable_bonds>  (14) 
10

>  <i_lp_mmshare_version>  (14) 
65135

>  <i_m_ct_format>  (14) 
2

>  <i_m_source_file_index>  (14) 
2238

>  <i_qp_#NandO>  (14) 
6

>  <i_qp_#acid>  (14) 
0

>  <i_qp_#amide>  (14) 
0

>  <i_qp_#amidine>  (14) 
0

>  <i_qp_#amine>  (14) 
2

>  <i_qp_#in34>  (14) 
0

>  <i_qp_#in56>  (14) 
21

>  <i_qp_#metab>  (14) 
6

>  <i_qp_#nonHatm>  (14) 
35

>  <i_qp_#noncon>  (14) 
0

>  <i_qp_#ringatoms>  (14) 
21

>  <i_qp_#rotor>  (14) 
8

>  <i_qp_#rtvFG>  (14) 
1

>  <i_qp_#stars>  (14) 
0

>  <i_qp_CNS>  (14) 
1

>  <i_qp_HumanOralAbsorption>  (14) 
3

>  <i_qp_RuleOfFive>  (14) 
0

>  <i_qp_RuleOfThree>  (14) 
0

>  <i_sd_BIOSOLVEIT.INFINISEE\_RESULT\_RANK>  (14) 
6704

>  <i_sd_version>  (14) 
0

>  <b_lp_Chiralities_Consistent>  (14) 
1

>  <b_sd_chiral_flag>  (14) 
0

>  <acquisition_id>  (14) 
ATP-ACQ-0014

>  <canonical_id>  (14) 
ATP-HTVS-83530B88E656

>  <compound_code>  (14) 
71585

>  <title>  (14) 
rxn512c____EMOL884318____EMOL523944____EMOL2873214

>  <variant>  (14) 
71585-2

>  <selection_arm>  (14) 
descriptor_diversity

>  <priority>  (14) 
P0

>  <wave>  (14) 
1

>  <source_file>  (14) 
运行/运行/ATP-VSW/ATP-VSW-DOCK_HTVS_1-001_lib/ATP-VSW-DOCK_HTVS_1-001_lib

>  <canonical_smiles>  (14) 
COC(=O)c1ccc(N(C)C(=O)c2sc3ccccc3c2NCc2cccc(CN(C)C)c2)cc1

$$$$
ATP-ACQ-0015
     RDKit          3D

 61 64  0  0  0  0  0  0  0  0999 V2000
  195.9739  184.2142  160.5316 F   0  0  0  0  0  0  0  0  0  0  0  0
  196.3261  185.2373  159.7156 C   0  0  0  0  0  0  0  0  0  0  0  0
  196.7622  184.9641  158.4072 C   0  0  0  0  0  0  0  0  0  0  0  0
  196.8173  183.5989  158.0025 N   0  0  0  0  0  0  0  0  0  0  0  0
  196.8879  183.1252  156.7467 C   0  0  0  0  0  0  0  0  0  0  0  0
  197.0802  183.8040  155.7511 O   0  0  0  0  0  0  0  0  0  0  0  0
  196.6833  181.7874  156.6914 N   0  0  0  0  0  0  0  0  0  0  0  0
  196.4367  181.0610  155.4591 C   0  0  1  0  0  0  0  0  0  0  0  0
  197.5440  181.1669  154.3863 C   0  0  2  0  0  0  0  0  0  0  0  0
  197.0712  180.6388  153.0989 N   0  0  0  0  0  0  0  0  0  0  0  0
  197.7385  179.5295  152.6990 C   0  0  0  0  0  0  0  0  0  0  0  0
  197.5695  178.8743  151.6959 O   0  0  0  0  0  0  0  0  0  0  0  0
  198.8454  179.3555  153.6940 C   0  0  0  0  0  0  0  0  0  0  0  0
  198.7368  180.2950  154.6886 C   0  0  0  0  0  0  0  0  0  0  0  0
  199.6640  180.3592  155.7515 C   0  0  0  0  0  0  0  0  0  0  0  0
  200.7249  179.4221  155.7444 C   0  0  0  0  0  0  0  0  0  0  0  0
  200.8513  178.4772  154.6938 C   0  0  0  0  0  0  0  0  0  0  0  0
  199.9072  178.4412  153.6386 C   0  0  0  0  0  0  0  0  0  0  0  0
  196.1600  181.4241  152.2621 C   0  0  1  0  0  0  0  0  0  0  0  0
  196.8350  182.2646  151.1804 C   0  0  0  0  0  0  0  0  0  0  0  0
  196.4858  183.6281  151.0170 C   0  0  0  0  0  0  0  0  0  0  0  0
  197.1162  184.4158  150.0234 C   0  0  0  0  0  0  0  0  0  0  0  0
  198.1005  183.8390  149.1906 C   0  0  0  0  0  0  0  0  0  0  0  0
  198.4391  182.4850  149.3414 C   0  0  0  0  0  0  0  0  0  0  0  0
  197.7961  181.7044  150.3220 C   0  0  0  0  0  0  0  0  0  0  0  0
  197.1235  186.0368  157.5653 C   0  0  0  0  0  0  0  0  0  0  0  0
  197.0072  187.3906  158.0219 C   0  0  0  0  0  0  0  0  0  0  0  0
  196.6302  187.6388  159.3402 C   0  0  0  0  0  0  0  0  0  0  0  0
  196.2681  186.5641  160.1944 C   0  0  0  0  0  0  0  0  0  0  0  0
  196.6206  189.0734  159.8456 C   0  0  1  0  0  0  0  0  0  0  0  0
  197.9885  189.6179  160.1469 N   0  0  2  0  0  0  0  0  0  0  0  0
  197.9353  191.0159  160.5922 C   0  0  2  0  0  0  0  0  0  0  0  0
  198.9589  189.4655  159.0202 C   0  0  2  0  0  0  0  0  0  0  0  0
  196.6153  182.9312  158.7323 H   0  0  0  0  0  0  0  0  0  0  0  0
  196.4709  181.2861  157.5351 H   0  0  0  0  0  0  0  0  0  0  0  0
  196.2450  180.0103  155.6679 H   0  0  0  0  0  0  0  0  0  0  0  0
  195.4968  181.4373  155.0613 H   0  0  0  0  0  0  0  0  0  0  0  0
  197.8875  182.1905  154.1969 H   0  0  0  0  0  0  0  0  0  0  0  0
  199.5679  181.0924  156.5390 H   0  0  0  0  0  0  0  0  0  0  0  0
  201.4528  179.4256  156.5444 H   0  0  0  0  0  0  0  0  0  0  0  0
  201.6677  177.7669  154.7017 H   0  0  0  0  0  0  0  0  0  0  0  0
  200.0018  177.7421  152.8204 H   0  0  0  0  0  0  0  0  0  0  0  0
  195.4455  180.7546  151.7928 H   0  0  0  0  0  0  0  0  0  0  0  0
  195.5860  182.0954  152.8932 H   0  0  0  0  0  0  0  0  0  0  0  0
  195.7442  184.0801  151.6584 H   0  0  0  0  0  0  0  0  0  0  0  0
  196.8519  185.4632  149.9066 H   0  0  0  0  0  0  0  0  0  0  0  0
  198.5939  184.4387  148.4416 H   0  0  0  0  0  0  0  0  0  0  0  0
  199.1931  182.0375  148.7157 H   0  0  0  0  0  0  0  0  0  0  0  0
  198.0733  180.6303  150.4142 H   0  0  0  0  0  0  0  0  0  0  0  0
  197.5002  185.9270  156.5677 H   0  0  0  0  0  0  0  0  0  0  0  0
  197.2516  188.1553  157.3280 H   0  0  0  0  0  0  0  0  0  0  0  0
  195.9599  186.7461  161.2139 H   0  0  0  0  0  0  0  0  0  0  0  0
  196.1162  189.7034  159.1077 H   0  0  0  0  0  0  0  0  0  0  0  0
  196.0115  189.1324  160.7545 H   0  0  0  0  0  0  0  0  0  0  0  0
  197.5004  191.6702  159.8356 H   0  0  0  0  0  0  0  0  0  0  0  0
  198.9423  191.3761  160.8073 H   0  0  0  0  0  0  0  0  0  0  0  0
  197.3514  191.1096  161.5101 H   0  0  0  0  0  0  0  0  0  0  0  0
  198.5952  189.9696  158.1305 H   0  0  0  0  0  0  0  0  0  0  0  0
  199.1439  188.4198  158.7830 H   0  0  0  0  0  0  0  0  0  0  0  0
  199.9335  189.9035  159.2786 H   0  0  0  0  0  0  0  0  0  0  0  0
  198.3668  189.1010  160.9136 H   0  0  0  0  0  0  0  0  0  0  0  0
  1  2  1  0
  2  3  2  0
  2 29  1  0
  3  4  1  0
  3 26  1  0
  4  5  1  0
  4 34  1  0
  5  6  2  0
  5  7  1  0
  7  8  1  0
  7 35  1  0
  8  9  1  0
  8 36  1  1
  8 37  1  0
  9 10  1  0
  9 14  1  0
  9 38  1  6
 10 11  1  0
 10 19  1  0
 11 12  2  0
 11 13  1  0
 13 14  1  0
 13 18  2  0
 14 15  2  0
 15 16  1  0
 15 39  1  0
 16 17  2  0
 16 40  1  0
 17 18  1  0
 17 41  1  0
 18 42  1  0
 19 20  1  0
 19 43  1  6
 19 44  1  0
 20 21  2  0
 20 25  1  0
 21 22  1  0
 21 45  1  0
 22 23  2  0
 22 46  1  0
 23 24  1  0
 23 47  1  0
 24 25  2  0
 24 48  1  0
 25 49  1  0
 26 27  2  0
 26 50  1  0
 27 28  1  0
 27 51  1  0
 28 29  2  0
 28 30  1  0
 29 52  1  0
 30 31  1  0
 30 53  1  6
 30 54  1  0
 31 32  1  0
 31 33  1  0
 31 61  1  1
 32 55  1  6
 32 56  1  0
 32 57  1  0
 33 58  1  6
 33 59  1  0
 33 60  1  0
M  CHG  1  31   1
M  END
>  <s_epik_cmdline>  (15) 
J2VwaWtfcHl0aG9uJywgJy1waCcsICc3LjAwMDAwMCcsICctcGh0JywgJzIuMDAwMDAwJywgJy1tcycsICcxNicsICctdG4nLCAnOCcsICctbWEnLCAnMjAwJywgJy1pbWFlJywgJzxpbmZpbGUubWFlPicsICctb21hZScsICc8b3V0ZmlsZS5tYWU+Jw==

>  <s_epik_input>  (15) 
W0NIM11OKFtDSDNdKVtDSDJdYyhbY0hdMSlbY0hdW2NIXWMoYzFGKVtOSF1DKD1PKVtOSF1bQ0gyXVtDQEBIXShjKGMyMylbY0hdW2NIXVtjSF1bY0hdMylOKEMyPU8pW0NIMl1jNFtjSF1bY0hdW2NIXVtjSF1bY0hdNA==

>  <s_i_glide_gridfile>  (15) 
ATP-Grid

>  <s_lp_Force_Field>  (15) 
OPLS_2005

>  <s_lp_Variant>  (15) 
m_2430bbb____22525962____12219700-1

>  <s_lp_label>  (15) 
873_sdstereoexpander_1_neutralizer_1_epik_1_stereoizer_1

>  <s_m_source_file>  (15) 
ATP-VSW-LIGPREP-003-in.maegz

>  <s_sd_BIOSOLVEIT.INFINISEE\_QUERY\_NAME>  (15) 
Ref-Lig

>  <s_sd_BIOSOLVEIT.INFINISEE\_QUERY\_SMILES>  (15) 
S(c1nc2c(cc1C[NH2+]Cc3ccc(cc3)C[NH+](C)C)cccc2)Cc4ccccc4

>  <s_sd_BIOSOLVEIT.INFINISEE\_REACTION\_NAME>  (15) 
m_2430bbb

>  <s_sd_BIOSOLVEIT.INFINISEE\_REAGENT1\_SMILES>  (15) 
[R1*]C(=O)Nc1c(F)cc(cc1)CN(C)C

>  <s_sd_BIOSOLVEIT.INFINISEE\_REAGENT2\_SMILES>  (15) 
[R1*]NCC1N(C(=O)c2c1cccc2)Cc3ccccc3

>  <s_sd_BIOSOLVEIT.INFINISEE\_SPACE>  (15) 
REALSpace_44bn_2023-08

>  <s_vsw_compound_code>  (15) 
27907

>  <s_vsw_variant>  (15) 
27907-1

>  <r_epik_Charging_Adjusted_Penalty>  (15) 
0.093921114358164207

>  <r_epik_Ionization_Penalty>  (15) 
0.047

>  <r_epik_Ionization_Penalty_Charging>  (15) 
0.047

>  <r_epik_Ionization_Penalty_Neutral>  (15) 
0

>  <r_epik_State_Penalty>  (15) 
0.047

>  <r_i_docking_score>  (15) 
-4.7621621555883902

>  <r_i_glide_ecoul>  (15) 
-7.9788541793823198

>  <r_i_glide_eff_state_penalty>  (15) 
0.047

>  <r_i_glide_einternal>  (15) 
2.2138612270355198

>  <r_i_glide_emodel>  (15) 
-61.029566429269003

>  <r_i_glide_energy>  (15) 
-45.081435203552203

>  <r_i_glide_erotb>  (15) 
0.79989992766617801

>  <r_i_glide_esite>  (15) 
-0.21513362877606301

>  <r_i_glide_evdw>  (15) 
-37.102581024169901

>  <r_i_glide_gscore>  (15) 
-4.8091621555883899

>  <r_i_glide_hbond>  (15) 
-0.17247791425106801

>  <r_i_glide_ligand_efficiency>  (15) 
-0.14430794410873901

>  <r_i_glide_ligand_efficiency_ln>  (15) 
-1.0590802062468401

>  <r_i_glide_ligand_efficiency_sa>  (15) 
-0.46287268428042

>  <r_i_glide_lipo>  (15) 
-1.5359798065413399

>  <r_i_glide_metal>  (15) 
-0

>  <r_i_glide_rewards>  (15) 
-0.63351355557025202

>  <r_lp_Energy>  (15) 
45.028903

>  <r_qp_ACxDN^.5/SA>  (15) 
0.012755300000000001

>  <r_qp_CIQPlogS>  (15) 
-4.9459999999999997

>  <r_qp_EA(eV)>  (15) 
0.32700000000000001

>  <r_qp_FISA>  (15) 
75.474000000000004

>  <r_qp_FOSA>  (15) 
254.15700000000001

>  <r_qp_IP(eV)>  (15) 
8.8249999999999993

>  <r_qp_Jm>  (15) 
0.0057919144945682297

>  <r_qp_PISA>  (15) 
414.42099999999999

>  <r_qp_PSA>  (15) 
79.379000000000005

>  <r_qp_PercentHumanOralAbsorption>  (15) 
96.686999999999998

>  <r_qp_QPPCaco>  (15) 
367.32999999999998

>  <r_qp_QPPMDCK>  (15) 
367.10700000000003

>  <r_qp_QPlogBB>  (15) 
-0.191

>  <r_qp_QPlogHERG>  (15) 
-6.2830000000000004

>  <r_qp_QPlogKhsa>  (15) 
0.442

>  <r_qp_QPlogKp>  (15) 
-2.8410000000000002

>  <r_qp_QPlogPC16>  (15) 
15.231

>  <r_qp_QPlogPo/w>  (15) 
4.0700000000000003

>  <r_qp_QPlogPoct>  (15) 
24.129999999999999

>  <r_qp_QPlogPw>  (15) 
14.252000000000001

>  <r_qp_QPlogS>  (15) 
-5.0460000000000003

>  <r_qp_QPpolrz>  (15) 
50.268000000000001

>  <r_qp_SASA>  (15) 
776.10799999999995

>  <r_qp_SAamideO>  (15) 
14.073

>  <r_qp_SAfluorine>  (15) 
32.055

>  <r_qp_WPSA>  (15) 
32.055

>  <r_qp_accptHB>  (15) 
7

>  <r_qp_dip^2/V>  (15) 
0.048571299999999998

>  <r_qp_dipole>  (15) 
8.3140000000000001

>  <r_qp_donorHB>  (15) 
2

>  <r_qp_glob>  (15) 
0.78843980000000002

>  <r_qp_mol_MW>  (15) 
446.52300000000002

>  <r_qp_volume>  (15) 
1423.2729999999999

>  <r_sd_BIOSOLVEIT.INFINISEE\_FTREES\_SIMILARITY>  (15) 
0.92000000000000004

>  <r_sd_BIOSOLVEIT.LOGP>  (15) 
2.9889999999999999

>  <r_sd_BIOSOLVEIT.MOLECULAR\_WEIGHT>  (15) 
447.53100000000001

>  <r_sd_BIOSOLVEIT.TPSA>  (15) 
65.879999999999995

>  <i_epik_Tot_Q>  (15) 
1

>  <i_epik_Tot_abs_Q>  (15) 
1

>  <i_f3d_flags>  (15) 
0

>  <i_i_glide_confnum>  (15) 
6

>  <i_i_glide_lignum>  (15) 
344

>  <i_i_glide_posenum>  (15) 
11

>  <i_i_glide_rotatable_bonds>  (15) 
9

>  <i_lp_mmshare_version>  (15) 
65135

>  <i_m_ct_format>  (15) 
2

>  <i_m_source_file_index>  (15) 
873

>  <i_qp_#NandO>  (15) 
6

>  <i_qp_#acid>  (15) 
0

>  <i_qp_#amide>  (15) 
1

>  <i_qp_#amidine>  (15) 
0

>  <i_qp_#amine>  (15) 
1

>  <i_qp_#in34>  (15) 
0

>  <i_qp_#in56>  (15) 
21

>  <i_qp_#metab>  (15) 
4

>  <i_qp_#nonHatm>  (15) 
33

>  <i_qp_#noncon>  (15) 
1

>  <i_qp_#ringatoms>  (15) 
21

>  <i_qp_#rotor>  (15) 
7

>  <i_qp_#rtvFG>  (15) 
0

>  <i_qp_#stars>  (15) 
0

>  <i_qp_CNS>  (15) 
1

>  <i_qp_HumanOralAbsorption>  (15) 
3

>  <i_qp_RuleOfFive>  (15) 
0

>  <i_qp_RuleOfThree>  (15) 
0

>  <i_sd_BIOSOLVEIT.INFINISEE\_REAGENT1\_NAME>  (15) 
22525962

>  <i_sd_BIOSOLVEIT.INFINISEE\_REAGENT2\_NAME>  (15) 
12219700

>  <i_sd_BIOSOLVEIT.INFINISEE\_RESULT\_RANK>  (15) 
16712

>  <i_sd_version>  (15) 
0

>  <b_lp_Chiralities_Consistent>  (15) 
1

>  <b_sd_chiral_flag>  (15) 
0

>  <acquisition_id>  (15) 
ATP-ACQ-0015

>  <canonical_id>  (15) 
ATP-HTVS-1356F7D69808

>  <compound_code>  (15) 
27907

>  <title>  (15) 
m_2430bbb____22525962____12219700

>  <variant>  (15) 
27907-1

>  <selection_arm>  (15) 
score_calibration

>  <priority>  (15) 
P0

>  <wave>  (15) 
1

>  <source_file>  (15) 
运行/运行/ATP-VSW/ATP-VSW-DOCK_HTVS_1-003_lib/ATP-VSW-DOCK_HTVS_1-003_lib.mae

>  <canonical_smiles>  (15) 
C[NH+](C)Cc1ccc(NC(=O)NC[C@H]2c3ccccc3C(=O)N2Cc2ccccc2)c(F)c1

$$$$
ATP-ACQ-0016
     RDKit          3D

 57 60  0  0  0  0  0  0  0  0999 V2000
  199.0484  178.6743  152.6399 S   0  0  0  0  0  0  0  0  0  0  0  0
  199.8587  178.5031  154.1909 C   0  0  0  0  0  0  0  0  0  0  0  0
  199.1884  179.2617  155.2048 C   0  0  0  0  0  0  0  0  0  0  0  0
  199.7684  179.2360  156.4993 C   0  0  0  0  0  0  0  0  0  0  0  0
  200.9261  178.4900  156.7860 C   0  0  0  0  0  0  0  0  0  0  0  0
  201.5467  177.7430  155.7718 C   0  0  0  0  0  0  0  0  0  0  0  0
  201.0133  177.7488  154.4718 C   0  0  0  0  0  0  0  0  0  0  0  0
  198.0059  179.9286  154.6885 C   0  0  0  0  0  0  0  0  0  0  0  0
  197.2158  180.7200  155.5701 C   0  0  0  0  0  0  0  0  0  0  0  0
  196.5870  181.4131  156.3505 C   0  0  0  0  0  0  0  0  0  0  0  0
  195.8794  182.2192  157.3553 C   0  0  1  0  0  0  0  0  0  0  0  0
  194.7000  181.4391  157.7190 N   0  0  2  0  0  0  0  0  0  0  0  0
  196.7518  182.5736  158.5752 C   0  0  1  0  0  0  0  0  0  0  0  0
  196.4153  183.9264  159.1853 C   0  0  0  0  0  0  0  0  0  0  0  0
  197.3801  184.9561  159.1857 C   0  0  0  0  0  0  0  0  0  0  0  0
  197.0706  186.2205  159.7252 C   0  0  0  0  0  0  0  0  0  0  0  0
  197.9967  187.2073  159.7120 F   0  0  0  0  0  0  0  0  0  0  0  0
  195.7972  186.4625  160.2706 C   0  0  0  0  0  0  0  0  0  0  0  0
  194.8320  185.4361  160.2739 C   0  0  0  0  0  0  0  0  0  0  0  0
  195.1410  184.1722  159.7384 C   0  0  0  0  0  0  0  0  0  0  0  0
  197.8125  179.6812  153.3444 C   0  0  0  0  0  0  0  0  0  0  0  0
  196.6959  180.1862  152.4743 C   0  0  1  0  0  0  0  0  0  0  0  0
  197.0581  181.3908  151.7010 N   0  0  0  0  0  0  0  0  0  0  0  0
  197.1463  181.3692  150.3456 C   0  0  0  0  0  0  0  0  0  0  0  0
  196.9462  180.3560  149.6632 O   0  0  0  0  0  0  0  0  0  0  0  0
  197.5251  182.6434  149.6436 C   0  0  0  0  0  0  0  0  0  0  0  0
  196.7339  183.8208  149.7380 C   0  0  0  0  0  0  0  0  0  0  0  0
  195.5592  183.8397  150.4391 O   0  0  0  0  0  0  0  0  0  0  0  0
  197.1477  185.0148  149.1185 C   0  0  0  0  0  0  0  0  0  0  0  0
  198.3361  185.0431  148.3746 C   0  0  0  0  0  0  0  0  0  0  0  0
  199.1116  183.8792  148.2440 C   0  0  0  0  0  0  0  0  0  0  0  0
  198.7101  182.6884  148.8793 C   0  0  0  0  0  0  0  0  0  0  0  0
  197.4521  182.5740  152.4966 C   0  0  2  0  0  0  0  0  0  0  0  0
  194.1476  181.2820  156.8941 H   0  0  0  0  0  0  0  0  0  0  0  0
  194.1494  181.9231  158.3923 H   0  0  0  0  0  0  0  0  0  0  0  0
  199.2984  179.7861  157.3012 H   0  0  0  0  0  0  0  0  0  0  0  0
  201.3373  178.4847  157.7866 H   0  0  0  0  0  0  0  0  0  0  0  0
  202.4323  177.1652  155.9954 H   0  0  0  0  0  0  0  0  0  0  0  0
  201.4955  177.1828  153.6890 H   0  0  0  0  0  0  0  0  0  0  0  0
  195.5431  183.1311  156.8555 H   0  0  0  0  0  0  0  0  0  0  0  0
  196.6381  181.8000  159.3316 H   0  0  0  0  0  0  0  0  0  0  0  0
  197.8067  182.5641  158.3155 H   0  0  0  0  0  0  0  0  0  0  0  0
  198.3633  184.7896  158.7665 H   0  0  0  0  0  0  0  0  0  0  0  0
  195.5637  187.4316  160.6845 H   0  0  0  0  0  0  0  0  0  0  0  0
  193.8508  185.6222  160.6870 H   0  0  0  0  0  0  0  0  0  0  0  0
  194.3892  183.3991  159.7492 H   0  0  0  0  0  0  0  0  0  0  0  0
  196.3367  179.3676  151.8394 H   0  0  0  0  0  0  0  0  0  0  0  0
  195.8403  180.4384  153.0954 H   0  0  0  0  0  0  0  0  0  0  0  0
  195.5417  183.2478  151.1794 H   0  0  0  0  0  0  0  0  0  0  0  0
  196.5549  185.9138  149.2221 H   0  0  0  0  0  0  0  0  0  0  0  0
  198.6585  185.9551  147.8985 H   0  0  0  0  0  0  0  0  0  0  0  0
  200.0208  183.9017  147.6616 H   0  0  0  0  0  0  0  0  0  0  0  0
  199.3190  181.8057  148.7776 H   0  0  0  0  0  0  0  0  0  0  0  0
  198.5108  182.7973  152.3122 H   0  0  0  0  0  0  0  0  0  0  0  0
  197.3187  182.4044  153.5633 H   0  0  0  0  0  0  0  0  0  0  0  0
  196.8488  183.4572  152.2659 H   0  0  0  0  0  0  0  0  0  0  0  0
  194.9750  180.5061  158.1126 H   0  0  0  0  0  0  0  0  0  0  0  0
  1  2  1  0
  1 21  1  0
  2  3  1  0
  2  7  2  0
  3  4  2  0
  3  8  1  0
  4  5  1  0
  4 36  1  0
  5  6  2  0
  5 37  1  0
  6  7  1  0
  6 38  1  0
  7 39  1  0
  8  9  1  0
  8 21  2  0
  9 10  3  0
 10 11  1  0
 11 12  1  0
 11 13  1  0
 11 40  1  6
 12 34  1  6
 12 35  1  0
 12 57  1  0
 13 14  1  0
 13 41  1  1
 13 42  1  0
 14 15  1  0
 14 20  2  0
 15 16  2  0
 15 43  1  0
 16 17  1  0
 16 18  1  0
 18 19  2  0
 18 44  1  0
 19 20  1  0
 19 45  1  0
 20 46  1  0
 21 22  1  0
 22 23  1  0
 22 47  1  6
 22 48  1  0
 23 24  1  0
 23 33  1  0
 24 25  2  0
 24 26  1  0
 26 27  1  0
 26 32  2  0
 27 28  1  0
 27 29  2  0
 28 49  1  0
 29 30  1  0
 29 50  1  0
 30 31  2  0
 30 51  1  0
 31 32  1  0
 31 52  1  0
 32 53  1  0
 33 54  1  1
 33 55  1  0
 33 56  1  0
M  CHG  1  12   1
M  END
>  <s_epik_cmdline>  (16) 
J2VwaWtfcHl0aG9uJywgJy1waCcsICc3LjAwMDAwMCcsICctcGh0JywgJzIuMDAwMDAwJywgJy1tcycsICcxNicsICctdG4nLCAnOCcsICctbWEnLCAnMjAwJywgJy1pbWFlJywgJzxpbmZpbGUubWFlPicsICctb21hZScsICc8b3V0ZmlsZS5tYWU+Jw==

>  <s_epik_input>  (16) 
W2NIXTFbY0hdW2NIXVtjSF1jKFtPSF0pYzFDKD1PKU4oW0NIM10pW0NIMl1jKHMyKWMoYyhjMjMpW2NIXVtjSF1bY0hdW2NIXTMpQyNDW0NAQEhdKFtOSDJdKVtDSDJdYzRbY0hdYyhGKVtjSF1bY0hdW2NIXTQ=

>  <s_i_glide_gridfile>  (16) 
ATP-Grid

>  <s_lp_Force_Field>  (16) 
OPLS_2005

>  <s_lp_Variant>  (16) 
rxn503c____EMOL478035____EMOL49259969____EMOL313110234-4

>  <s_lp_label>  (16) 
2644_sdstereoexpander_2_neutralizer_1_epik_2_stereoizer_1

>  <s_m_source_file>  (16) 
ATP-VSW-LIGPREP-001-in.maegz

>  <s_sd_BIOSOLVEIT.INFINISEE\_QUERY\_NAME>  (16) 
Ref-Lig

>  <s_sd_BIOSOLVEIT.INFINISEE\_QUERY\_SMILES>  (16) 
S(c1nc2c(cc1C[NH2+]Cc3ccc(cc3)C[NH+](C)C)cccc2)Cc4ccccc4

>  <s_sd_BIOSOLVEIT.INFINISEE\_REACTION\_NAME>  (16) 
rxn503c

>  <s_sd_BIOSOLVEIT.INFINISEE\_REAGENT1\_NAME>  (16) 
EMOL478035

>  <s_sd_BIOSOLVEIT.INFINISEE\_REAGENT1\_SMILES>  (16) 
O=C(O)c1c(O)cccc1

>  <s_sd_BIOSOLVEIT.INFINISEE\_REAGENT2\_NAME>  (16) 
EMOL49259969

>  <s_sd_BIOSOLVEIT.INFINISEE\_REAGENT2\_SMILES>  (16) 
ClC=1c2c(SC1CNC)cccc2

>  <s_sd_BIOSOLVEIT.INFINISEE\_REAGENT3\_NAME>  (16) 
EMOL313110234

>  <s_sd_BIOSOLVEIT.INFINISEE\_REAGENT3\_SMILES>  (16) 
Fc1cc(ccc1)CC(N)C#C

>  <s_sd_BIOSOLVEIT.INFINISEE\_SPACE>  (16) 
eXplore_7tr_2022-12

>  <s_vsw_compound_code>  (16) 
84577

>  <s_vsw_variant>  (16) 
84577-4

>  <r_epik_Charging_Adjusted_Penalty>  (16) 
1.21575498988359

>  <r_epik_Ionization_Penalty>  (16) 
0.63549999999999995

>  <r_epik_Ionization_Penalty_Charging>  (16) 
0.58030000000000004

>  <r_epik_Ionization_Penalty_Neutral>  (16) 
0.055199999999999999

>  <r_epik_State_Penalty>  (16) 
0.63549999999999995

>  <r_i_docking_score>  (16) 
-6.7131225125310401

>  <r_i_glide_ecoul>  (16) 
-15.4359216690063

>  <r_i_glide_eff_state_penalty>  (16) 
0.63549999999999995

>  <r_i_glide_einternal>  (16) 
8.6129016876220703

>  <r_i_glide_emodel>  (16) 
-81.203723621153699

>  <r_i_glide_energy>  (16) 
-52.396424293518102

>  <r_i_glide_erotb>  (16) 
0.46685289725444301

>  <r_i_glide_esite>  (16) 
-0.10000000000000001

>  <r_i_glide_evdw>  (16) 
-36.960502624511697

>  <r_i_glide_gscore>  (16) 
-7.3486225125310396

>  <r_i_glide_hbond>  (16) 
-0.53603289544564703

>  <r_i_glide_ligand_efficiency>  (16) 
-0.20342795492518301

>  <r_i_glide_ligand_efficiency_ln>  (16) 
-1.49296368809878

>  <r_i_glide_ligand_efficiency_sa>  (16) 
-0.65250214834287601

>  <r_i_glide_lipo>  (16) 
-2.0782676802436999

>  <r_i_glide_metal>  (16) 
-0

>  <r_i_glide_rewards>  (16) 
-0.93776145251959797

>  <r_lp_Energy>  (16) 
26.653186999999999

>  <r_lp_tautomer_probability>  (16) 
0.999999999997365

>  <r_qp_ACxDN^.5/SA>  (16) 
0.0084510999999999996

>  <r_qp_CIQPlogS>  (16) 
-7.1539999999999999

>  <r_qp_EA(eV)>  (16) 
0.88100000000000001

>  <r_qp_FISA>  (16) 
112.51900000000001

>  <r_qp_FOSA>  (16) 
128.64400000000001

>  <r_qp_IP(eV)>  (16) 
8.6780000000000008

>  <r_qp_Jm>  (16) 
0.018882791370007399

>  <r_qp_PISA>  (16) 
328.96499999999997

>  <r_qp_PSA>  (16) 
73.174000000000007

>  <r_qp_PercentHumanOralAbsorption>  (16) 
100

>  <r_qp_QPPCaco>  (16) 
211.72800000000001

>  <r_qp_QPPMDCK>  (16) 
210.81899999999999

>  <r_qp_QPlogBB>  (16) 
-0.33700000000000002

>  <r_qp_QPlogHERG>  (16) 
-5.218

>  <r_qp_QPlogKhsa>  (16) 
0.97899999999999998

>  <r_qp_QPlogKp>  (16) 
-3.633

>  <r_qp_QPlogPC16>  (16) 
13.834

>  <r_qp_QPlogPo/w>  (16) 
4.9690000000000003

>  <r_qp_QPlogPoct>  (16) 
20.396999999999998

>  <r_qp_QPlogPw>  (16) 
8.8900000000000006

>  <r_qp_QPlogS>  (16) 
-3.7519999999999998

>  <r_qp_QPpolrz>  (16) 
42.901000000000003

>  <r_qp_SASA>  (16) 
627.52700000000004

>  <r_qp_SAamideO>  (16) 
0

>  <r_qp_SAfluorine>  (16) 
30.637

>  <r_qp_WPSA>  (16) 
57.399000000000001

>  <r_qp_accptHB>  (16) 
3.75

>  <r_qp_dip^2/V>  (16) 
0.051728999999999997

>  <r_qp_dipole>  (16) 
8.1739999999999995

>  <r_qp_donorHB>  (16) 
2

>  <r_qp_glob>  (16) 
0.91403829999999997

>  <r_qp_mol_MW>  (16) 
458.54899999999998

>  <r_qp_volume>  (16) 
1291.6600000000001

>  <r_sd_BIOSOLVEIT.INFINISEE\_FTREES\_SIMILARITY>  (16) 
0.91000000000000003

>  <r_sd_BIOSOLVEIT.LOGP>  (16) 
4.2229000000000001

>  <r_sd_BIOSOLVEIT.MOLECULAR\_WEIGHT>  (16) 
459.56200000000001

>  <r_sd_BIOSOLVEIT.TPSA>  (16) 
68.180000000000007

>  <i_epik_Tot_Q>  (16) 
1

>  <i_epik_Tot_abs_Q>  (16) 
1

>  <i_f3d_flags>  (16) 
0

>  <i_i_glide_confnum>  (16) 
4

>  <i_i_glide_lignum>  (16) 
1133

>  <i_i_glide_posenum>  (16) 
19

>  <i_i_glide_rotatable_bonds>  (16) 
9

>  <i_lp_mmshare_version>  (16) 
65135

>  <i_m_ct_format>  (16) 
2

>  <i_m_source_file_index>  (16) 
2644

>  <i_qp_#NandO>  (16) 
4

>  <i_qp_#acid>  (16) 
0

>  <i_qp_#amide>  (16) 
0

>  <i_qp_#amidine>  (16) 
0

>  <i_qp_#amine>  (16) 
1

>  <i_qp_#in34>  (16) 
0

>  <i_qp_#in56>  (16) 
21

>  <i_qp_#metab>  (16) 
7

>  <i_qp_#nonHatm>  (16) 
33

>  <i_qp_#noncon>  (16) 
0

>  <i_qp_#ringatoms>  (16) 
21

>  <i_qp_#rotor>  (16) 
9

>  <i_qp_#rtvFG>  (16) 
0

>  <i_qp_#stars>  (16) 
0

>  <i_qp_CNS>  (16) 
1

>  <i_qp_HumanOralAbsorption>  (16) 
3

>  <i_qp_RuleOfFive>  (16) 
0

>  <i_qp_RuleOfThree>  (16) 
1

>  <i_sd_BIOSOLVEIT.INFINISEE\_RESULT\_RANK>  (16) 
45595

>  <i_sd_version>  (16) 
0

>  <b_lp_Chiralities_Consistent>  (16) 
1

>  <b_sd_chiral_flag>  (16) 
0

>  <acquisition_id>  (16) 
ATP-ACQ-0016

>  <canonical_id>  (16) 
ATP-HTVS-65F4836C7042

>  <compound_code>  (16) 
84577

>  <title>  (16) 
rxn503c____EMOL478035____EMOL49259969____EMOL313110234

>  <variant>  (16) 
84577-4

>  <selection_arm>  (16) 
exploitation

>  <priority>  (16) 
P0

>  <wave>  (16) 
1

>  <source_file>  (16) 
运行/运行/ATP-VSW/ATP-VSW-DOCK_HTVS_1-001_lib/ATP-VSW-DOCK_HTVS_1-001_lib

>  <canonical_smiles>  (16) 
CN(Cc1sc2ccccc2c1C#C[C@@H]([NH3+])Cc1cccc(F)c1)C(=O)c1ccccc1O

$$$$
ATP-ACQ-0017
     RDKit          3D

 49 52  0  0  0  0  0  0  0  0999 V2000
  200.1668  180.1073  156.8499 O   0  0  0  0  0  0  0  0  0  0  0  0
  199.0402  180.3534  156.3699 C   0  0  0  0  0  0  0  0  0  0  0  0
  198.4739  179.6555  155.3520 N   0  0  0  0  0  0  0  0  0  0  0  0
  199.1893  178.6405  154.6630 C   0  0  0  0  0  0  0  0  0  0  0  0
  199.7234  177.5206  155.3515 C   0  0  0  0  0  0  0  0  0  0  0  0
  200.3685  176.4970  154.6362 C   0  0  0  0  0  0  0  0  0  0  0  0
  200.4817  176.5647  153.2378 C   0  0  0  0  0  0  0  0  0  0  0  0
  199.9490  177.6683  152.5452 C   0  0  0  0  0  0  0  0  0  0  0  0
  199.3095  178.7024  153.2574 C   0  0  0  0  0  0  0  0  0  0  0  0
  197.1212  179.9831  154.8588 C   0  0  2  0  0  0  0  0  0  0  0  0
  198.3220  181.5506  156.8964 C   0  0  0  0  0  0  0  0  0  0  0  0
  197.0961  181.4340  157.4729 N   0  0  0  0  0  0  0  0  0  0  0  0
  196.3906  182.4760  157.9385 C   0  0  0  0  0  0  0  0  0  0  0  0
  196.9466  183.7775  157.9201 C   0  0  0  0  0  0  0  0  0  0  0  0
  198.2480  183.9562  157.3736 C   0  0  0  0  0  0  0  0  0  0  0  0
  198.8618  185.1817  157.3730 O   0  0  0  0  0  0  0  0  0  0  0  0
  199.7749  185.4456  158.3757 C   0  0  0  0  0  0  0  0  0  0  0  0
  199.9963  186.7947  158.7424 C   0  0  0  0  0  0  0  0  0  0  0  0
  200.9483  187.1234  159.7377 C   0  0  0  0  0  0  0  0  0  0  0  0
  201.6682  186.0936  160.3781 C   0  0  0  0  0  0  0  0  0  0  0  0
  201.4551  184.7567  160.0183 C   0  0  0  0  0  0  0  0  0  0  0  0
  200.5103  184.4286  159.0343 C   0  0  0  0  0  0  0  0  0  0  0  0
  202.6773  186.4061  161.4629 C   0  0  2  0  0  0  0  0  0  0  0  0
  198.9142  182.8350  156.8421 C   0  0  0  0  0  0  0  0  0  0  0  0
  196.2056  184.8508  158.4526 C   0  0  0  0  0  0  0  0  0  0  0  0
  194.9177  184.6158  158.9685 C   0  0  0  0  0  0  0  0  0  0  0  0
  194.3542  183.3270  158.9408 C   0  0  0  0  0  0  0  0  0  0  0  0
  195.1081  182.2356  158.4696 C   0  0  0  0  0  0  0  0  0  0  0  0
  199.6160  177.4415  156.4232 H   0  0  0  0  0  0  0  0  0  0  0  0
  200.7584  175.6428  155.1686 H   0  0  0  0  0  0  0  0  0  0  0  0
  200.9610  175.7691  152.6944 H   0  0  0  0  0  0  0  0  0  0  0  0
  200.0263  177.7125  151.4652 H   0  0  0  0  0  0  0  0  0  0  0  0
  198.8961  179.5372  152.7026 H   0  0  0  0  0  0  0  0  0  0  0  0
  196.8530  179.4501  153.9516 H   0  0  0  0  0  0  0  0  0  0  0  0
  196.9872  181.0393  154.6565 H   0  0  0  0  0  0  0  0  0  0  0  0
  196.4069  179.6699  155.5947 H   0  0  0  0  0  0  0  0  0  0  0  0
  199.4510  187.5937  158.2558 H   0  0  0  0  0  0  0  0  0  0  0  0
  201.1052  188.1590  160.0163 H   0  0  0  0  0  0  0  0  0  0  0  0
  202.0070  183.9651  160.4959 H   0  0  0  0  0  0  0  0  0  0  0  0
  200.4220  183.3752  158.8228 H   0  0  0  0  0  0  0  0  0  0  0  0
  202.7891  185.5405  162.1261 H   0  0  0  0  0  0  0  0  0  0  0  0
  202.3560  187.2628  162.0660 H   0  0  0  0  0  0  0  0  0  0  0  0
  203.6512  186.6220  161.0104 H   0  0  0  0  0  0  0  0  0  0  0  0
  199.8925  182.9435  156.3794 H   0  0  0  0  0  0  0  0  0  0  0  0
  196.6120  185.8443  158.4478 H   0  0  0  0  0  0  0  0  0  0  0  0
  194.3420  185.4365  159.3491 H   0  0  0  0  0  0  0  0  0  0  0  0
  193.3460  183.1652  159.2931 H   0  0  0  0  0  0  0  0  0  0  0  0
  194.6960  181.2361  158.4501 H   0  0  0  0  0  0  0  0  0  0  0  0
  196.6560  180.5027  157.5685 H   0  0  0  0  0  0  0  0  0  0  0  0
  1  2  2  0
  2  3  1  0
  2 11  1  0
  3  4  1  0
  3 10  1  0
  4  5  2  0
  4  9  1  0
  5  6  1  0
  5 29  1  0
  6  7  2  0
  6 30  1  0
  7  8  1  0
  7 31  1  0
  8  9  2  0
  8 32  1  0
  9 33  1  0
 10 34  1  6
 10 35  1  0
 10 36  1  0
 11 12  2  0
 11 24  1  0
 12 13  1  0
 12 49  1  0
 13 14  1  0
 13 28  2  0
 14 15  1  0
 14 25  2  0
 15 16  1  0
 15 24  2  0
 16 17  1  0
 17 18  1  0
 17 22  2  0
 18 19  2  0
 18 37  1  0
 19 20  1  0
 19 38  1  0
 20 21  2  0
 20 23  1  0
 21 22  1  0
 21 39  1  0
 22 40  1  0
 23 41  1  1
 23 42  1  0
 23 43  1  0
 24 44  1  0
 25 26  1  0
 25 45  1  0
 26 27  2  0
 26 46  1  0
 27 28  1  0
 27 47  1  0
 28 48  1  0
M  CHG  1  12   1
M  END
>  <s_epik_cmdline>  (17) 
J2VwaWtfcHl0aG9uJywgJy1waCcsICc3LjAwMDAwMCcsICctcGh0JywgJzIuMDAwMDAwJywgJy1tcycsICcxNicsICctdG4nLCAnOCcsICctbWEnLCAnMjAwJywgJy1pbWFlJywgJzxpbmZpbGUubWFlPicsICctb21hZScsICc8b3V0ZmlsZS5tYWU+Jw==

>  <s_epik_input>  (17) 
W2NIXTFbY0hdW2NIXVtjSF1bY0hdYzFOKFtDSDNdKUMoPU8pYyhuMilbY0hdYyhjKGMyMylbY0hdW2NIXVtjSF1bY0hdMylPYzRbY0hdW2NIXWMoW0NIM10pW2NIXVtjSF00

>  <s_i_glide_gridfile>  (17) 
ATP-Grid

>  <s_lp_Force_Field>  (17) 
OPLS_2005

>  <s_lp_Variant>  (17) 
a1____51052____400834-2

>  <s_lp_label>  (17) 
446_sdstereoexpander_1_neutralizer_1_epik_2_stereoizer_1

>  <s_m_source_file>  (17) 
ATP-VSW-LIGPREP-003-in.maegz

>  <s_sd_BIOSOLVEIT.INFINISEE\_QUERY\_NAME>  (17) 
Ref-Lig

>  <s_sd_BIOSOLVEIT.INFINISEE\_QUERY\_SMILES>  (17) 
S(c1nc2c(cc1C[NH2+]Cc3ccc(cc3)C[NH+](C)C)cccc2)Cc4ccccc4

>  <s_sd_BIOSOLVEIT.INFINISEE\_REACTION\_NAME>  (17) 
a1

>  <s_sd_BIOSOLVEIT.INFINISEE\_REAGENT1\_SMILES>  (17) 
[R1*]N(c1ccccc1)C

>  <s_sd_BIOSOLVEIT.INFINISEE\_REAGENT2\_SMILES>  (17) 
[R1*]C(=O)c1nc2c(c(Oc3ccc(cc3)C)c1)cccc2

>  <s_sd_BIOSOLVEIT.INFINISEE\_SPACE>  (17) 
FreedomSpace_5bn_2023-06

>  <s_vsw_compound_code>  (17) 
14243

>  <s_vsw_variant>  (17) 
14243-2

>  <r_epik_Charging_Adjusted_Penalty>  (17) 
1.4703333805084799

>  <r_epik_Ionization_Penalty>  (17) 
0.73519999999999996

>  <r_epik_Ionization_Penalty_Charging>  (17) 
0.73519999999999996

>  <r_epik_Ionization_Penalty_Neutral>  (17) 
0

>  <r_epik_State_Penalty>  (17) 
0.73519999999999996

>  <r_i_docking_score>  (17) 
-3.6253229383866601

>  <r_i_glide_ecoul>  (17) 
-8.17736911773682

>  <r_i_glide_eff_state_penalty>  (17) 
0.73519999999999996

>  <r_i_glide_einternal>  (17) 
7.6476392745971697

>  <r_i_glide_emodel>  (17) 
-47.679065713824897

>  <r_i_glide_energy>  (17) 
-36.839856147766099

>  <r_i_glide_erotb>  (17) 
0.70635175722167798

>  <r_i_glide_esite>  (17) 
-0.210640452588892

>  <r_i_glide_evdw>  (17) 
-28.6624870300293

>  <r_i_glide_gscore>  (17) 
-4.3605229383866604

>  <r_i_glide_hbond>  (17) 
-0.20000000000000001

>  <r_i_glide_ligand_efficiency>  (17) 
-0.12947581922809501

>  <r_i_glide_ligand_efficiency_ln>  (17) 
-0.83683097828639696

>  <r_i_glide_ligand_efficiency_sa>  (17) 
-0.39316484435589799

>  <r_i_glide_lipo>  (17) 
-0.88129366022109501

>  <r_i_glide_metal>  (17) 
-0

>  <r_i_glide_rewards>  (17) 
-1.11521086363636

>  <r_lp_Energy>  (17) 
41.937814000000003

>  <r_lp_tautomer_probability>  (17) 
1

>  <r_qp_ACxDN^.5/SA>  (17) 
0

>  <r_qp_CIQPlogS>  (17) 
-6.1289999999999996

>  <r_qp_EA(eV)>  (17) 
1.0529999999999999

>  <r_qp_FISA>  (17) 
50.488

>  <r_qp_FOSA>  (17) 
147.47399999999999

>  <r_qp_IP(eV)>  (17) 
8.9209999999999994

>  <r_qp_Jm>  (17) 
2.6042895929375698

>  <r_qp_PISA>  (17) 
396.928

>  <r_qp_PSA>  (17) 
46.762

>  <r_qp_PercentHumanOralAbsorption>  (17) 
100

>  <r_qp_QPPCaco>  (17) 
3289.4279999999999

>  <r_qp_QPPMDCK>  (17) 
1791.827

>  <r_qp_QPlogBB>  (17) 
-0.11

>  <r_qp_QPlogHERG>  (17) 
-5.335

>  <r_qp_QPlogKhsa>  (17) 
0.52500000000000002

>  <r_qp_QPlogKp>  (17) 
-0.66800000000000004

>  <r_qp_QPlogPC16>  (17) 
11.959

>  <r_qp_QPlogPo/w>  (17) 
4.5910000000000002

>  <r_qp_QPlogPoct>  (17) 
16.446000000000002

>  <r_qp_QPlogPw>  (17) 
7.7439999999999998

>  <r_qp_QPlogS>  (17) 
-4.4829999999999997

>  <r_qp_QPpolrz>  (17) 
40.292999999999999

>  <r_qp_SASA>  (17) 
594.88999999999999

>  <r_qp_SAamideO>  (17) 
0

>  <r_qp_SAfluorine>  (17) 
0

>  <r_qp_WPSA>  (17) 
0

>  <r_qp_accptHB>  (17) 
4.5

>  <r_qp_dip^2/V>  (17) 
0.0493648

>  <r_qp_dipole>  (17) 
7.4690000000000003

>  <r_qp_donorHB>  (17) 
0

>  <r_qp_glob>  (17) 
0.88197919999999996

>  <r_qp_mol_MW>  (17) 
368.43400000000003

>  <r_qp_volume>  (17) 
1130.0440000000001

>  <r_sd_BIOSOLVEIT.INFINISEE\_FTREES\_SIMILARITY>  (17) 
0.90700000000000003

>  <r_sd_BIOSOLVEIT.LOGP>  (17) 
5.61212

>  <r_sd_BIOSOLVEIT.MOLECULAR\_WEIGHT>  (17) 
368.43400000000003

>  <r_sd_BIOSOLVEIT.TPSA>  (17) 
42.43

>  <i_epik_Tot_Q>  (17) 
1

>  <i_epik_Tot_abs_Q>  (17) 
1

>  <i_f3d_flags>  (17) 
0

>  <i_i_glide_confnum>  (17) 
3

>  <i_i_glide_lignum>  (17) 
238

>  <i_i_glide_posenum>  (17) 
17

>  <i_i_glide_rotatable_bonds>  (17) 
5

>  <i_lp_mmshare_version>  (17) 
65135

>  <i_m_ct_format>  (17) 
2

>  <i_m_source_file_index>  (17) 
446

>  <i_qp_#NandO>  (17) 
4

>  <i_qp_#acid>  (17) 
0

>  <i_qp_#amide>  (17) 
0

>  <i_qp_#amidine>  (17) 
0

>  <i_qp_#amine>  (17) 
0

>  <i_qp_#in34>  (17) 
0

>  <i_qp_#in56>  (17) 
22

>  <i_qp_#metab>  (17) 
2

>  <i_qp_#nonHatm>  (17) 
28

>  <i_qp_#noncon>  (17) 
0

>  <i_qp_#ringatoms>  (17) 
22

>  <i_qp_#rotor>  (17) 
4

>  <i_qp_#rtvFG>  (17) 
0

>  <i_qp_#stars>  (17) 
0

>  <i_qp_CNS>  (17) 
0

>  <i_qp_HumanOralAbsorption>  (17) 
3

>  <i_qp_RuleOfFive>  (17) 
0

>  <i_qp_RuleOfThree>  (17) 
0

>  <i_sd_BIOSOLVEIT.INFINISEE\_REAGENT1\_NAME>  (17) 
51052

>  <i_sd_BIOSOLVEIT.INFINISEE\_REAGENT2\_NAME>  (17) 
400834

>  <i_sd_BIOSOLVEIT.INFINISEE\_RESULT\_RANK>  (17) 
61367

>  <i_sd_version>  (17) 
0

>  <b_lp_Chiralities_Consistent>  (17) 
1

>  <b_sd_chiral_flag>  (17) 
0

>  <acquisition_id>  (17) 
ATP-ACQ-0017

>  <canonical_id>  (17) 
ATP-HTVS-542A37ED863C

>  <compound_code>  (17) 
14243

>  <title>  (17) 
a1____51052____400834

>  <variant>  (17) 
14243-2

>  <selection_arm>  (17) 
descriptor_diversity

>  <priority>  (17) 
P0

>  <wave>  (17) 
1

>  <source_file>  (17) 
运行/运行/ATP-VSW/ATP-VSW-DOCK_HTVS_1-003_lib/ATP-VSW-DOCK_HTVS_1-003_lib.mae

>  <canonical_smiles>  (17) 
Cc1ccc(Oc2cc(C(=O)N(C)c3ccccc3)[nH+]c3ccccc23)cc1

$$$$
ATP-ACQ-0018
     RDKit          3D

 52 55  0  0  0  0  0  0  0  0999 V2000
  201.8896  176.4345  156.7090 F   0  0  0  0  0  0  0  0  0  0  0  0
  201.1667  177.4313  156.1364 C   0  0  0  0  0  0  0  0  0  0  0  0
  201.1831  177.6012  154.7394 C   0  0  0  0  0  0  0  0  0  0  0  0
  200.4008  178.6122  154.1450 C   0  0  0  0  0  0  0  0  0  0  0  0
  199.6176  179.4922  154.9351 C   0  0  0  0  0  0  0  0  0  0  0  0
  199.6698  179.3580  156.3452 C   0  0  0  0  0  0  0  0  0  0  0  0
  200.4123  178.3125  156.9375 C   0  0  0  0  0  0  0  0  0  0  0  0
  198.7618  180.5134  154.3009 C   0  0  0  0  0  0  0  0  0  0  0  0
  199.1424  181.0476  153.1502 N   0  0  0  0  0  0  0  0  0  0  0  0
  198.1844  181.9364  152.7983 N   0  0  0  0  0  0  0  0  0  0  0  0
  198.2939  182.6988  151.5988 C   0  0  0  0  0  0  0  0  0  0  0  0
  197.1973  183.4627  151.1306 C   0  0  0  0  0  0  0  0  0  0  0  0
  197.3032  184.2179  149.9445 C   0  0  0  0  0  0  0  0  0  0  0  0
  198.5063  184.2179  149.2148 C   0  0  0  0  0  0  0  0  0  0  0  0
  199.6046  183.4628  149.6699 C   0  0  0  0  0  0  0  0  0  0  0  0
  199.4991  182.7078  150.8535 C   0  0  0  0  0  0  0  0  0  0  0  0
  197.1821  181.9565  153.7404 C   0  0  0  0  0  0  0  0  0  0  0  0
  197.5052  181.0590  154.7220 C   0  0  0  0  0  0  0  0  0  0  0  0
  196.6927  180.7015  155.9370 C   0  0  1  0  0  0  0  0  0  0  0  0
  196.1008  181.9200  156.5469 N   0  0  1  0  0  0  0  0  0  0  0  0
  195.8970  181.8357  158.0066 C   0  0  1  0  0  0  0  0  0  0  0  0
  195.9004  183.2152  158.6338 C   0  0  0  0  0  0  0  0  0  0  0  0
  197.0993  183.9595  158.7034 C   0  0  0  0  0  0  0  0  0  0  0  0
  197.1078  185.2373  159.2928 C   0  0  0  0  0  0  0  0  0  0  0  0
  198.2733  185.9461  159.3229 O   0  0  0  0  0  0  0  0  0  0  0  0
  195.9193  185.7745  159.8387 C   0  0  0  0  0  0  0  0  0  0  0  0
  194.7289  185.0232  159.7692 C   0  0  0  0  0  0  0  0  0  0  0  0
  194.7152  183.7548  159.1645 C   0  0  0  0  0  0  0  0  0  0  0  0
  195.9082  187.1440  160.4908 C   0  0  2  0  0  0  0  0  0  0  0  0
  196.7550  182.6701  156.3936 H   0  0  0  0  0  0  0  0  0  0  0  0
  201.8026  176.9559  154.1299 H   0  0  0  0  0  0  0  0  0  0  0  0
  200.4117  178.7108  153.0655 H   0  0  0  0  0  0  0  0  0  0  0  0
  199.1559  180.0338  156.9981 H   0  0  0  0  0  0  0  0  0  0  0  0
  200.3917  178.1925  158.0102 H   0  0  0  0  0  0  0  0  0  0  0  0
  196.2608  183.4786  151.6684 H   0  0  0  0  0  0  0  0  0  0  0  0
  196.4617  184.7968  149.5940 H   0  0  0  0  0  0  0  0  0  0  0  0
  198.5887  184.7955  148.3069 H   0  0  0  0  0  0  0  0  0  0  0  0
  200.5302  183.4609  149.1112 H   0  0  0  0  0  0  0  0  0  0  0  0
  200.3557  182.1381  151.1843 H   0  0  0  0  0  0  0  0  0  0  0  0
  196.3249  182.6073  153.6504 H   0  0  0  0  0  0  0  0  0  0  0  0
  195.9477  179.9659  155.6604 H   0  0  0  0  0  0  0  0  0  0  0  0
  197.2854  180.2085  156.6754 H   0  0  0  0  0  0  0  0  0  0  0  0
  194.9543  181.3308  158.2011 H   0  0  0  0  0  0  0  0  0  0  0  0
  196.6845  181.2689  158.5057 H   0  0  0  0  0  0  0  0  0  0  0  0
  198.0157  183.5563  158.2993 H   0  0  0  0  0  0  0  0  0  0  0  0
  198.1669  186.8162  159.6768 H   0  0  0  0  0  0  0  0  0  0  0  0
  193.8088  185.4238  160.1698 H   0  0  0  0  0  0  0  0  0  0  0  0
  193.7895  183.1956  159.1130 H   0  0  0  0  0  0  0  0  0  0  0  0
  194.9267  187.3820  160.9012 H   0  0  0  0  0  0  0  0  0  0  0  0
  196.1650  187.9166  159.7661 H   0  0  0  0  0  0  0  0  0  0  0  0
  196.6263  187.1811  161.3087 H   0  0  0  0  0  0  0  0  0  0  0  0
  195.2204  182.1990  156.1099 H   0  0  0  0  0  0  0  0  0  0  0  0
  1  2  1  0
  2  3  1  0
  2  7  2  0
  3  4  2  0
  3 31  1  0
  4  5  1  0
  4 32  1  0
  5  6  2  0
  5  8  1  0
  6  7  1  0
  6 33  1  0
  7 34  1  0
  8  9  2  0
  8 18  1  0
  9 10  1  0
 10 11  1  0
 10 17  1  0
 11 12  2  0
 11 16  1  0
 12 13  1  0
 12 35  1  0
 13 14  2  0
 13 36  1  0
 14 15  1  0
 14 37  1  0
 15 16  2  0
 15 38  1  0
 16 39  1  0
 17 18  2  0
 17 40  1  0
 18 19  1  0
 19 20  1  0
 19 41  1  6
 19 42  1  0
 20 21  1  0
 20 30  1  1
 20 52  1  0
 21 22  1  0
 21 43  1  6
 21 44  1  0
 22 23  2  0
 22 28  1  0
 23 24  1  0
 23 45  1  0
 24 25  1  0
 24 26  2  0
 25 46  1  0
 26 27  1  0
 26 29  1  0
 27 28  2  0
 27 47  1  0
 28 48  1  0
 29 49  1  1
 29 50  1  0
 29 51  1  0
M  CHG  1  20   1
M  END
>  <s_epik_cmdline>  (18) 
J2VwaWtfcHl0aG9uJywgJy1waCcsICc3LjAwMDAwMCcsICctcGh0JywgJzIuMDAwMDAwJywgJy1tcycsICcxNicsICctdG4nLCAnOCcsICctbWEnLCAnMjAwJywgJy1pbWFlJywgJzxpbmZpbGUubWFlPicsICctb21hZScsICc8b3V0ZmlsZS5tYWU+Jw==

>  <s_epik_input>  (18) 
RmMxW2NIXVtjSF1jKFtjSF1bY0hdMSktYzJubigtYzNbY0hdW2NIXVtjSF1bY0hdW2NIXTMpW2NIXWMyW0NIMl1bTkhdW0NIMl1jNFtjSF1jKFtPSF0pYyhbQ0gzXSlbY0hdW2NIXTQ=

>  <s_i_glide_gridfile>  (18) 
ATP-Grid

>  <s_lp_Force_Field>  (18) 
OPLS_2005

>  <s_lp_Variant>  (18) 
a4____241131____9264-1

>  <s_lp_label>  (18) 
450_sdstereoexpander_1_neutralizer_1_epik_1_stereoizer_1

>  <s_m_source_file>  (18) 
ATP-VSW-LIGPREP-002-in.maegz

>  <s_sd_BIOSOLVEIT.INFINISEE\_QUERY\_NAME>  (18) 
Ref-Lig

>  <s_sd_BIOSOLVEIT.INFINISEE\_QUERY\_SMILES>  (18) 
S(c1nc2c(cc1C[NH2+]Cc3ccc(cc3)C[NH+](C)C)cccc2)Cc4ccccc4

>  <s_sd_BIOSOLVEIT.INFINISEE\_REACTION\_NAME>  (18) 
a4

>  <s_sd_BIOSOLVEIT.INFINISEE\_REAGENT1\_SMILES>  (18) 
[R1*]NCC=1C(=NN(c2ccccc2)C1)c3ccc(F)cc3

>  <s_sd_BIOSOLVEIT.INFINISEE\_REAGENT2\_SMILES>  (18) 
[R1*]Cc1cc(O)c(cc1)C

>  <s_sd_BIOSOLVEIT.INFINISEE\_SPACE>  (18) 
FreedomSpace_5bn_2023-06

>  <s_vsw_compound_code>  (18) 
14370

>  <s_vsw_variant>  (18) 
14370-1

>  <r_epik_Charging_Adjusted_Penalty>  (18) 
0.17054924664982801

>  <r_epik_Ionization_Penalty>  (18) 
0.087300000000000003

>  <r_epik_Ionization_Penalty_Charging>  (18) 
0.085300000000000001

>  <r_epik_Ionization_Penalty_Neutral>  (18) 
0.002

>  <r_epik_State_Penalty>  (18) 
0.085300000000000001

>  <r_i_docking_score>  (18) 
-4.76204452470596

>  <r_i_glide_ecoul>  (18) 
-10.0300741195679

>  <r_i_glide_eff_state_penalty>  (18) 
0.085300000000000001

>  <r_i_glide_einternal>  (18) 
4.1353940963745099

>  <r_i_glide_emodel>  (18) 
-58.914069712881499

>  <r_i_glide_energy>  (18) 
-41.9241495132446

>  <r_i_glide_erotb>  (18) 
0.77472468987334497

>  <r_i_glide_esite>  (18) 
-0.103484473017644

>  <r_i_glide_evdw>  (18) 
-31.8940753936768

>  <r_i_glide_gscore>  (18) 
-4.8473445247059601

>  <r_i_glide_hbond>  (18) 
-0.20000000000000001

>  <r_i_glide_ligand_efficiency>  (18) 
-0.16420843188641199

>  <r_i_glide_ligand_efficiency_ln>  (18) 
-1.09038744112755

>  <r_i_glide_ligand_efficiency_sa>  (18) 
-0.50450032763784602

>  <r_i_glide_lipo>  (18) 
-1.45885160166992

>  <r_i_glide_metal>  (18) 
-0

>  <r_i_glide_rewards>  (18) 
-0.76051825227272596

>  <r_lp_Energy>  (18) 
12.459198000000001

>  <r_lp_tautomer_probability>  (18) 
0.999999999997365

>  <r_qp_ACxDN^.5/SA>  (18) 
0.0072002000000000003

>  <r_qp_CIQPlogS>  (18) 
-6.0030000000000001

>  <r_qp_EA(eV)>  (18) 
0.61299999999999999

>  <r_qp_FISA>  (18) 
65.915999999999997

>  <r_qp_FOSA>  (18) 
129.41200000000001

>  <r_qp_IP(eV)>  (18) 
8.8330000000000002

>  <r_qp_Jm>  (18) 
0.0125584315914389

>  <r_qp_PISA>  (18) 
412.83600000000001

>  <r_qp_PSA>  (18) 
49.710000000000001

>  <r_qp_PercentHumanOralAbsorption>  (18) 
100

>  <r_qp_QPPCaco>  (18) 
585.75800000000004

>  <r_qp_QPPMDCK>  (18) 
449.25

>  <r_qp_QPlogBB>  (18) 
0.13200000000000001

>  <r_qp_QPlogHERG>  (18) 
-6.5940000000000003

>  <r_qp_QPlogKhsa>  (18) 
0.95199999999999996

>  <r_qp_QPlogKp>  (18) 
-2.863

>  <r_qp_QPlogPC16>  (18) 
12.976000000000001

>  <r_qp_QPlogPo/w>  (18) 
4.851

>  <r_qp_QPlogPoct>  (18) 
19.132999999999999

>  <r_qp_QPlogPw>  (18) 
9.5500000000000007

>  <r_qp_QPlogS>  (18) 
-4.6269999999999998

>  <r_qp_QPpolrz>  (18) 
42.451000000000001

>  <r_qp_SASA>  (18) 
638.34400000000005

>  <r_qp_SAamideO>  (18) 
0

>  <r_qp_SAfluorine>  (18) 
30.18

>  <r_qp_WPSA>  (18) 
30.18

>  <r_qp_accptHB>  (18) 
3.25

>  <r_qp_dip^2/V>  (18) 
0.016679699999999999

>  <r_qp_dipole>  (18) 
4.4669999999999996

>  <r_qp_donorHB>  (18) 
2

>  <r_qp_glob>  (18) 
0.85372420000000004

>  <r_qp_mol_MW>  (18) 
387.45600000000002

>  <r_qp_volume>  (18) 
1196.2190000000001

>  <r_sd_BIOSOLVEIT.INFINISEE\_FTREES\_SIMILARITY>  (18) 
0.90600000000000003

>  <r_sd_BIOSOLVEIT.LOGP>  (18) 
3.9560200000000001

>  <r_sd_BIOSOLVEIT.MOLECULAR\_WEIGHT>  (18) 
388.464

>  <r_sd_BIOSOLVEIT.TPSA>  (18) 
54.659999999999997

>  <i_epik_Tot_Q>  (18) 
1

>  <i_epik_Tot_abs_Q>  (18) 
1

>  <i_f3d_flags>  (18) 
0

>  <i_i_glide_confnum>  (18) 
6

>  <i_i_glide_lignum>  (18) 
154

>  <i_i_glide_posenum>  (18) 
2

>  <i_i_glide_rotatable_bonds>  (18) 
7

>  <i_lp_mmshare_version>  (18) 
65135

>  <i_m_ct_format>  (18) 
2

>  <i_m_source_file_index>  (18) 
450

>  <i_qp_#NandO>  (18) 
4

>  <i_qp_#acid>  (18) 
0

>  <i_qp_#amide>  (18) 
0

>  <i_qp_#amidine>  (18) 
0

>  <i_qp_#amine>  (18) 
1

>  <i_qp_#in34>  (18) 
0

>  <i_qp_#in56>  (18) 
23

>  <i_qp_#metab>  (18) 
5

>  <i_qp_#nonHatm>  (18) 
29

>  <i_qp_#noncon>  (18) 
0

>  <i_qp_#ringatoms>  (18) 
23

>  <i_qp_#rotor>  (18) 
5

>  <i_qp_#rtvFG>  (18) 
0

>  <i_qp_#stars>  (18) 
0

>  <i_qp_CNS>  (18) 
1

>  <i_qp_HumanOralAbsorption>  (18) 
3

>  <i_qp_RuleOfFive>  (18) 
0

>  <i_qp_RuleOfThree>  (18) 
0

>  <i_sd_BIOSOLVEIT.INFINISEE\_REAGENT1\_NAME>  (18) 
241131

>  <i_sd_BIOSOLVEIT.INFINISEE\_REAGENT2\_NAME>  (18) 
9264

>  <i_sd_BIOSOLVEIT.INFINISEE\_RESULT\_RANK>  (18) 
62433

>  <i_sd_version>  (18) 
0

>  <b_lp_Chiralities_Consistent>  (18) 
1

>  <b_sd_chiral_flag>  (18) 
0

>  <acquisition_id>  (18) 
ATP-ACQ-0018

>  <canonical_id>  (18) 
ATP-HTVS-3E3A2065ACC9

>  <compound_code>  (18) 
14370

>  <title>  (18) 
a4____241131____9264

>  <variant>  (18) 
14370-1

>  <selection_arm>  (18) 
score_calibration

>  <priority>  (18) 
P0

>  <wave>  (18) 
1

>  <source_file>  (18) 
运行/运行/ATP-VSW/ATP-VSW-DOCK_HTVS_1-002_lib.maegz

>  <canonical_smiles>  (18) 
Cc1ccc(C[NH2+]Cc2cn(-c3ccccc3)nc2-c2ccc(F)cc2)cc1O

$$$$
ATP-ACQ-0019
     RDKit          3D

 55 57  0  0  0  0  0  0  0  0999 V2000
  197.3542  180.0368  154.2634 S   0  0  0  0  0  0  0  0  0  0  0  0
  197.4825  180.6462  152.6304 C   0  0  0  0  0  0  0  0  0  0  0  0
  197.6683  179.7220  151.5191 C   0  0  0  0  0  0  0  0  0  0  0  0
  197.1736  180.0486  150.2400 C   0  0  0  0  0  0  0  0  0  0  0  0
  197.3510  179.1661  149.1563 C   0  0  0  0  0  0  0  0  0  0  0  0
  198.0363  177.9441  149.3234 C   0  0  0  0  0  0  0  0  0  0  0  0
  198.2301  177.0240  148.1836 N   0  0  0  0  0  0  0  0  0  0  0  0
  198.6641  175.9003  148.4119 O   0  0  0  0  0  0  0  0  0  0  0  0
  197.9492  177.4391  147.0600 O   0  0  0  0  0  0  0  0  0  0  0  0
  198.5362  177.6193  150.6071 C   0  0  0  0  0  0  0  0  0  0  0  0
  198.3607  178.5053  151.6888 C   0  0  0  0  0  0  0  0  0  0  0  0
  197.3672  182.0117  152.5972 C   0  0  0  0  0  0  0  0  0  0  0  0
  197.1857  182.5849  153.8864 C   0  0  0  0  0  0  0  0  0  0  0  0
  197.1449  181.6481  154.8900 C   0  0  0  0  0  0  0  0  0  0  0  0
  197.0131  181.9158  156.3444 C   0  0  1  0  0  0  0  0  0  0  0  0
  195.6586  181.5828  156.8551 N   0  0  1  0  0  0  0  0  0  0  0  0
  195.4295  181.7647  158.3053 C   0  0  1  0  0  0  0  0  0  0  0  0
  195.7301  183.1826  158.8291 C   0  0  0  0  0  0  0  0  0  0  0  0
  197.0732  183.5597  159.0582 C   0  0  0  0  0  0  0  0  0  0  0  0
  197.3765  184.8703  159.5036 C   0  0  0  0  0  0  0  0  0  0  0  0
  196.3412  185.7682  159.7998 C   0  0  0  0  0  0  0  0  0  0  0  0
  195.0021  185.3723  159.6292 C   0  0  0  0  0  0  0  0  0  0  0  0
  194.6945  184.0965  159.1214 C   0  0  0  0  0  0  0  0  0  0  0  0
  196.6294  187.1694  160.2823 C   0  0  1  0  0  0  0  0  0  0  0  0
  196.7185  188.1739  159.1955 N   0  0  2  0  0  0  0  0  0  0  0  0
  197.7388  187.8718  158.1619 C   0  0  2  0  0  0  0  0  0  0  0  0
  196.8843  189.5421  159.7383 C   0  0  2  0  0  0  0  0  0  0  0  0
  194.0050  181.2739  158.6255 C   0  0  2  0  0  0  0  0  0  0  0  0
  194.9433  182.0863  156.3293 H   0  0  0  0  0  0  0  0  0  0  0  0
  196.6494  180.9790  150.0876 H   0  0  0  0  0  0  0  0  0  0  0  0
  196.9617  179.4400  148.1873 H   0  0  0  0  0  0  0  0  0  0  0  0
  199.0694  176.6929  150.7645 H   0  0  0  0  0  0  0  0  0  0  0  0
  198.7658  178.2429  152.6559 H   0  0  0  0  0  0  0  0  0  0  0  0
  197.4307  182.6245  151.7084 H   0  0  0  0  0  0  0  0  0  0  0  0
  197.0889  183.6510  154.0332 H   0  0  0  0  0  0  0  0  0  0  0  0
  197.7600  181.3506  156.9019 H   0  0  0  0  0  0  0  0  0  0  0  0
  197.2151  182.9746  156.4894 H   0  0  0  0  0  0  0  0  0  0  0  0
  196.1188  181.0972  158.8271 H   0  0  0  0  0  0  0  0  0  0  0  0
  197.8879  182.8790  158.8678 H   0  0  0  0  0  0  0  0  0  0  0  0
  198.4092  185.1600  159.6156 H   0  0  0  0  0  0  0  0  0  0  0  0
  194.1954  186.0428  159.8458 H   0  0  0  0  0  0  0  0  0  0  0  0
  193.6510  183.8686  158.9755 H   0  0  0  0  0  0  0  0  0  0  0  0
  195.8408  187.4649  160.9707 H   0  0  0  0  0  0  0  0  0  0  0  0
  197.5466  187.1653  160.8551 H   0  0  0  0  0  0  0  0  0  0  0  0
  198.7367  187.8390  158.5996 H   0  0  0  0  0  0  0  0  0  0  0  0
  197.7386  188.6319  157.3794 H   0  0  0  0  0  0  0  0  0  0  0  0
  197.5541  186.9194  157.6627 H   0  0  0  0  0  0  0  0  0  0  0  0
  197.8241  189.6310  160.2867 H   0  0  0  0  0  0  0  0  0  0  0  0
  196.0706  189.7902  160.4207 H   0  0  0  0  0  0  0  0  0  0  0  0
  196.8819  190.2817  158.9367 H   0  0  0  0  0  0  0  0  0  0  0  0
  193.9031  181.3214  159.7022 H   0  0  0  0  0  0  0  0  0  0  0  0
  193.8203  180.2369  158.3379 H   0  0  0  0  0  0  0  0  0  0  0  0
  193.2330  181.8692  158.1355 H   0  0  0  0  0  0  0  0  0  0  0  0
  195.8261  188.1646  158.7222 H   0  0  0  0  0  0  0  0  0  0  0  0
  195.5299  180.5778  156.7524 H   0  0  0  0  0  0  0  0  0  0  0  0
  1  2  1  0
  1 14  1  0
  2  3  1  0
  2 12  2  0
  3  4  1  0
  3 11  2  0
  4  5  2  0
  4 30  1  0
  5  6  1  0
  5 31  1  0
  6  7  1  0
  6 10  2  0
  7  8  1  0
  7  9  2  0
 10 11  1  0
 10 32  1  0
 11 33  1  0
 12 13  1  0
 12 34  1  0
 13 14  2  0
 13 35  1  0
 14 15  1  0
 15 16  1  0
 15 36  1  1
 15 37  1  0
 16 17  1  0
 16 29  1  6
 16 55  1  0
 17 18  1  0
 17 28  1  0
 17 38  1  1
 18 19  1  0
 18 23  2  0
 19 20  2  0
 19 39  1  0
 20 21  1  0
 20 40  1  0
 21 22  2  0
 21 24  1  0
 22 23  1  0
 22 41  1  0
 23 42  1  0
 24 25  1  0
 24 43  1  1
 24 44  1  0
 25 26  1  0
 25 27  1  0
 25 54  1  6
 26 45  1  1
 26 46  1  0
 26 47  1  0
 27 48  1  1
 27 49  1  0
 27 50  1  0
 28 51  1  1
 28 52  1  0
 28 53  1  0
M  CHG  4   7   1   8  -1  16   1  25   1
M  END
>  <s_epik_cmdline>  (19) 
J2VwaWtfcHl0aG9uJywgJy1waCcsICc3LjAwMDAwMCcsICctcGh0JywgJzIuMDAwMDAwJywgJy1tcycsICcxNicsICctdG4nLCAnOCcsICctbWEnLCAnMjAwJywgJy1pbWFlJywgJzxpbmZpbGUubWFlPicsICctb21hZScsICc8b3V0ZmlsZS5tYWU+Jw==

>  <s_epik_input>  (19) 
W08tXVtOK10oPU8pYyhbY0hdW2NIXTEpW2NIXVtjSF1jMS1jMnNjKFtjSF1bY0hdMilbQ0gyXVtOSF1bQ0BIXShbQ0gzXSljM1tjSF1bY0hdYyhbY0hdW2NIXTMpW0NIMl1OKFtDSDNdKVtDSDNd

>  <s_i_glide_gridfile>  (19) 
ATP-Grid

>  <s_lp_Force_Field>  (19) 
OPLS_2005

>  <s_lp_Variant>  (19) 
m_270004beb____23853920____7548658-1

>  <s_lp_label>  (19) 
1528_sdstereoexpander_1_neutralizer_1_epik_1_stereoizer_1

>  <s_m_source_file>  (19) 
ATP-VSW-LIGPREP-001-in.maegz

>  <s_sd_BIOSOLVEIT.INFINISEE\_QUERY\_NAME>  (19) 
Ref-Lig

>  <s_sd_BIOSOLVEIT.INFINISEE\_QUERY\_SMILES>  (19) 
S(c1nc2c(cc1C[NH2+]Cc3ccc(cc3)C[NH+](C)C)cccc2)Cc4ccccc4

>  <s_sd_BIOSOLVEIT.INFINISEE\_REACTION\_NAME>  (19) 
m_270004beb

>  <s_sd_BIOSOLVEIT.INFINISEE\_REAGENT1\_SMILES>  (19) 
[R1*]NC(c1ccc(cc1)CN(C)C)C

>  <s_sd_BIOSOLVEIT.INFINISEE\_REAGENT2\_SMILES>  (19) 
[R1*]CC=1SC(c2ccc([N+]([O-])=O)cc2)=CC1

>  <s_sd_BIOSOLVEIT.INFINISEE\_SPACE>  (19) 
REALSpace_44bn_2023-08

>  <s_vsw_compound_code>  (19) 
48865

>  <s_vsw_variant>  (19) 
48865-1

>  <r_epik_Charging_Adjusted_Penalty>  (19) 
0.27771382847655102

>  <r_epik_Ionization_Penalty>  (19) 
0.13919999999999999

>  <r_epik_Ionization_Penalty_Charging>  (19) 
0.13919999999999999

>  <r_epik_Ionization_Penalty_Neutral>  (19) 
0

>  <r_epik_State_Penalty>  (19) 
0.13850000000000001

>  <r_i_docking_score>  (19) 
-6.2837009351896898

>  <r_i_glide_ecoul>  (19) 
-13.430567741394

>  <r_i_glide_eff_state_penalty>  (19) 
0.13850000000000001

>  <r_i_glide_einternal>  (19) 
2.5059111118316699

>  <r_i_glide_emodel>  (19) 
-77.708544089105004

>  <r_i_glide_energy>  (19) 
-48.682250022888198

>  <r_i_glide_erotb>  (19) 
0.74322268203703001

>  <r_i_glide_esite>  (19) 
-0.096936023504967203

>  <r_i_glide_evdw>  (19) 
-35.251682281494098

>  <r_i_glide_gscore>  (19) 
-6.4222009351896903

>  <r_i_glide_hbond>  (19) 
-0.351174724379614

>  <r_i_glide_ligand_efficiency>  (19) 
-0.22441789054248901

>  <r_i_glide_ligand_efficiency_ln>  (19) 
-1.45046267331815

>  <r_i_glide_ligand_efficiency_sa>  (19) 
-0.68146489075599503

>  <r_i_glide_lipo>  (19) 
-1.7976335906091401

>  <r_i_glide_metal>  (19) 
-0

>  <r_i_glide_rewards>  (19) 
-1.14251000344919

>  <r_lp_Energy>  (19) 
16.462059

>  <r_qp_ACxDN^.5/SA>  (19) 
0.0071938000000000002

>  <r_qp_CIQPlogS>  (19) 
-4.3810000000000002

>  <r_qp_EA(eV)>  (19) 
1.536

>  <r_qp_FISA>  (19) 
110.886

>  <r_qp_FOSA>  (19) 
261.35399999999998

>  <r_qp_IP(eV)>  (19) 
9.109

>  <r_qp_Jm>  (19) 
0.00071185762238452205

>  <r_qp_PISA>  (19) 
232.119

>  <r_qp_PSA>  (19) 
62.805

>  <r_qp_PercentHumanOralAbsorption>  (19) 
78.841999999999999

>  <r_qp_QPPCaco>  (19) 
54.722000000000001

>  <r_qp_QPPMDCK>  (19) 
34.216999999999999

>  <r_qp_QPlogBB>  (19) 
0.032000000000000001

>  <r_qp_QPlogHERG>  (19) 
-6.0650000000000004

>  <r_qp_QPlogKhsa>  (19) 
0.75800000000000001

>  <r_qp_QPlogKp>  (19) 
-6.1989999999999998

>  <r_qp_QPlogPC16>  (19) 
12.298999999999999

>  <r_qp_QPlogPo/w>  (19) 
3.5499999999999998

>  <r_qp_QPlogPoct>  (19) 
18.132000000000001

>  <r_qp_QPlogPw>  (19) 
7.9180000000000001

>  <r_qp_QPlogS>  (19) 
-2.5459999999999998

>  <r_qp_QPpolrz>  (19) 
40.005000000000003

>  <r_qp_SASA>  (19) 
625.53999999999996

>  <r_qp_SAamideO>  (19) 
0

>  <r_qp_SAfluorine>  (19) 
0

>  <r_qp_WPSA>  (19) 
21.18

>  <r_qp_accptHB>  (19) 
4.5

>  <r_qp_dip^2/V>  (19) 
0.069368299999999994

>  <r_qp_dipole>  (19) 
9.1630000000000003

>  <r_qp_donorHB>  (19) 
1

>  <r_qp_glob>  (19) 
0.87803489999999995

>  <r_qp_mol_MW>  (19) 
395.51799999999997

>  <r_qp_volume>  (19) 
1210.326

>  <r_sd_BIOSOLVEIT.INFINISEE\_FTREES\_SIMILARITY>  (19) 
0.90700000000000003

>  <r_sd_BIOSOLVEIT.LOGP>  (19) 
2.7924000000000002

>  <r_sd_BIOSOLVEIT.MOLECULAR\_WEIGHT>  (19) 
397.53899999999999

>  <r_sd_BIOSOLVEIT.TPSA>  (19) 
66.870000000000005

>  <i_epik_Tot_Q>  (19) 
2

>  <i_epik_Tot_abs_Q>  (19) 
4

>  <i_f3d_flags>  (19) 
0

>  <i_i_glide_confnum>  (19) 
4

>  <i_i_glide_lignum>  (19) 
399

>  <i_i_glide_posenum>  (19) 
9

>  <i_i_glide_rotatable_bonds>  (19) 
8

>  <i_lp_mmshare_version>  (19) 
65135

>  <i_m_ct_format>  (19) 
2

>  <i_m_source_file_index>  (19) 
1528

>  <i_qp_#NandO>  (19) 
5

>  <i_qp_#acid>  (19) 
0

>  <i_qp_#amide>  (19) 
0

>  <i_qp_#amidine>  (19) 
0

>  <i_qp_#amine>  (19) 
2

>  <i_qp_#in34>  (19) 
0

>  <i_qp_#in56>  (19) 
17

>  <i_qp_#metab>  (19) 
7

>  <i_qp_#nonHatm>  (19) 
28

>  <i_qp_#noncon>  (19) 
0

>  <i_qp_#ringatoms>  (19) 
17

>  <i_qp_#rotor>  (19) 
7

>  <i_qp_#rtvFG>  (19) 
0

>  <i_qp_#stars>  (19) 
0

>  <i_qp_CNS>  (19) 
1

>  <i_qp_HumanOralAbsorption>  (19) 
2

>  <i_qp_RuleOfFive>  (19) 
0

>  <i_qp_RuleOfThree>  (19) 
1

>  <i_sd_BIOSOLVEIT.INFINISEE\_REAGENT1\_NAME>  (19) 
23853920

>  <i_sd_BIOSOLVEIT.INFINISEE\_REAGENT2\_NAME>  (19) 
7548658

>  <i_sd_BIOSOLVEIT.INFINISEE\_RESULT\_RANK>  (19) 
61087

>  <i_sd_version>  (19) 
0

>  <b_lp_Chiralities_Consistent>  (19) 
1

>  <b_sd_chiral_flag>  (19) 
0

>  <acquisition_id>  (19) 
ATP-ACQ-0019

>  <canonical_id>  (19) 
ATP-HTVS-60D4F7FF4B6B

>  <compound_code>  (19) 
48865

>  <title>  (19) 
m_270004beb____23853920____7548658

>  <variant>  (19) 
48865-1

>  <selection_arm>  (19) 
exploitation

>  <priority>  (19) 
P0

>  <wave>  (19) 
1

>  <source_file>  (19) 
运行/运行/ATP-VSW/ATP-VSW-DOCK_HTVS_1-001_lib/ATP-VSW-DOCK_HTVS_1-001_lib

>  <canonical_smiles>  (19) 
C[C@@H]([NH2+]Cc1ccc(-c2ccc([N+](=O)[O-])cc2)s1)c1ccc(C[NH+](C)C)cc1

$$$$
ATP-ACQ-0020
     RDKit          3D

 62 65  0  0  0  0  0  0  0  0999 V2000
  196.8098  185.7171  157.2485 N   0  0  0  0  0  0  0  0  0  0  0  0
  197.9152  185.4098  156.5599 C   0  0  0  0  0  0  0  0  0  0  0  0
  198.8611  186.2545  156.2365 N   0  0  0  0  0  0  0  0  0  0  0  0
  198.7129  187.5320  156.6686 C   0  0  0  0  0  0  0  0  0  0  0  0
  197.6589  187.8935  157.5694 C   0  0  0  0  0  0  0  0  0  0  0  0
  196.7467  186.8923  157.8898 C   0  0  0  0  0  0  0  0  0  0  0  0
  195.7512  187.0610  158.8898 N   0  0  0  0  0  0  0  0  0  0  0  0
  195.2703  185.9830  159.7752 C   0  0  1  0  0  0  0  0  0  0  0  0
  195.6960  184.5424  159.4793 C   0  0  0  0  0  0  0  0  0  0  0  0
  194.7733  183.5652  159.0214 C   0  0  0  0  0  0  0  0  0  0  0  0
  193.4112  183.8214  158.9225 N   0  0  0  0  0  0  0  0  0  0  0  0
  195.2334  182.2816  158.6854 C   0  0  0  0  0  0  0  0  0  0  0  0
  196.6010  181.9569  158.8108 C   0  0  0  0  0  0  0  0  0  0  0  0
  197.5392  182.9616  159.1366 C   0  0  0  0  0  0  0  0  0  0  0  0
  197.0754  184.2139  159.5440 C   0  0  0  0  0  0  0  0  0  0  0  0
  195.6562  186.2909  161.2203 C   0  0  2  0  0  0  0  0  0  0  0  0
  197.5518  189.2130  158.0624 C   0  0  0  0  0  0  0  0  0  0  0  0
  198.4545  190.1859  157.6211 C   0  0  0  0  0  0  0  0  0  0  0  0
  199.4771  189.8447  156.7147 C   0  0  0  0  0  0  0  0  0  0  0  0
  199.5953  188.5200  156.2497 C   0  0  0  0  0  0  0  0  0  0  0  0
  198.0719  184.0945  156.1639 N   0  0  0  0  0  0  0  0  0  0  0  0
  196.9199  183.2444  155.9525 C   0  0  1  0  0  0  0  0  0  0  0  0
  197.0921  182.0986  155.0153 C   0  0  0  0  0  0  0  0  0  0  0  0
  197.4663  180.7854  155.4053 C   0  0  0  0  0  0  0  0  0  0  0  0
  197.5721  179.7770  154.4292 C   0  0  0  0  0  0  0  0  0  0  0  0
  197.3048  180.0727  153.0776 C   0  0  0  0  0  0  0  0  0  0  0  0
  197.4085  179.0409  152.1339 N   0  0  0  0  0  0  0  0  0  0  0  0
  197.1165  179.2339  150.7151 C   0  0  2  0  0  0  0  0  0  0  0  0
  198.1551  180.1497  150.0532 C   0  0  2  0  0  0  0  0  0  0  0  0
  195.6638  179.6925  150.4751 C   0  0  2  0  0  0  0  0  0  0  0  0
  196.9448  181.4030  152.7448 C   0  0  0  0  0  0  0  0  0  0  0  0
  196.8111  182.3906  153.6978 C   0  0  0  0  0  0  0  0  0  0  0  0
  195.6814  187.9893  159.2811 H   0  0  0  0  0  0  0  0  0  0  0  0
  194.1834  186.0473  159.7345 H   0  0  0  0  0  0  0  0  0  0  0  0
  192.7827  183.1638  158.5128 H   0  0  0  0  0  0  0  0  0  0  0  0
  193.0484  184.7793  159.0432 H   0  0  0  0  0  0  0  0  0  0  0  0
  194.5564  181.5589  158.2413 H   0  0  0  0  0  0  0  0  0  0  0  0
  196.9537  181.0479  158.3539 H   0  0  0  0  0  0  0  0  0  0  0  0
  198.5917  182.8210  158.9156 H   0  0  0  0  0  0  0  0  0  0  0  0
  197.7987  185.0083  159.6643 H   0  0  0  0  0  0  0  0  0  0  0  0
  195.2451  185.5262  161.8773 H   0  0  0  0  0  0  0  0  0  0  0  0
  195.2873  187.2550  161.5580 H   0  0  0  0  0  0  0  0  0  0  0  0
  196.7406  186.2843  161.3346 H   0  0  0  0  0  0  0  0  0  0  0  0
  196.7549  189.4926  158.7412 H   0  0  0  0  0  0  0  0  0  0  0  0
  198.3623  191.2024  157.9746 H   0  0  0  0  0  0  0  0  0  0  0  0
  200.1746  190.5881  156.3841 H   0  0  0  0  0  0  0  0  0  0  0  0
  200.3835  188.2538  155.5620 H   0  0  0  0  0  0  0  0  0  0  0  0
  198.8562  183.8869  155.5733 H   0  0  0  0  0  0  0  0  0  0  0  0
  196.7568  182.6926  156.8034 H   0  0  0  0  0  0  0  0  0  0  0  0
  195.9751  183.7711  155.8710 H   0  0  0  0  0  0  0  0  0  0  0  0
  197.6722  180.5203  156.4314 H   0  0  0  0  0  0  0  0  0  0  0  0
  197.8655  178.7755  154.7150 H   0  0  0  0  0  0  0  0  0  0  0  0
  197.7237  178.1352  152.4401 H   0  0  0  0  0  0  0  0  0  0  0  0
  197.2176  178.2549  150.2374 H   0  0  0  0  0  0  0  0  0  0  0  0
  197.9561  180.2648  148.9906 H   0  0  0  0  0  0  0  0  0  0  0  0
  199.1641  179.7619  150.1836 H   0  0  0  0  0  0  0  0  0  0  0  0
  198.1621  181.1478  150.4726 H   0  0  0  0  0  0  0  0  0  0  0  0
  195.4544  179.8132  149.4171 H   0  0  0  0  0  0  0  0  0  0  0  0
  195.4206  180.6532  150.8975 H   0  0  0  0  0  0  0  0  0  0  0  0
  194.9424  179.0208  150.9298 H   0  0  0  0  0  0  0  0  0  0  0  0
  196.7611  181.7663  151.7617 H   0  0  0  0  0  0  0  0  0  0  0  0
  196.4973  183.3894  153.4278 H   0  0  0  0  0  0  0  0  0  0  0  0
  1  2  2  0
  1  6  1  0
  2  3  1  0
  2 21  1  0
  3  4  2  0
  4  5  1  0
  4 20  1  0
  5  6  2  0
  5 17  1  0
  6  7  1  0
  7  8  1  0
  7 33  1  0
  8  9  1  0
  8 16  1  0
  8 34  1  1
  9 10  1  0
  9 15  2  0
 10 11  1  0
 10 12  2  0
 11 35  1  0
 11 36  1  0
 12 13  1  0
 12 37  1  0
 13 14  2  0
 13 38  1  0
 14 15  1  0
 14 39  1  0
 15 40  1  0
 16 41  1  1
 16 42  1  0
 16 43  1  0
 17 18  2  0
 17 44  1  0
 18 19  1  0
 18 45  1  0
 19 20  2  0
 19 46  1  0
 20 47  1  0
 21 22  1  0
 21 48  1  0
 22 23  1  0
 22 49  1  1
 22 50  1  0
 23 24  1  0
 23 32  2  0
 24 25  2  0
 24 51  1  0
 25 26  1  0
 25 52  1  0
 26 27  1  0
 26 31  2  0
 27 28  1  0
 27 53  1  0
 28 29  1  0
 28 30  1  0
 28 54  1  6
 29 55  1  6
 29 56  1  0
 29 57  1  0
 30 58  1  6
 30 59  1  0
 30 60  1  0
 31 32  1  0
 31 61  1  0
 32 62  1  0
M  END
>  <s_epik_cmdline>  (20) 
J2VwaWtfcHl0aG9uJywgJy1waCcsICc3LjAwMDAwMCcsICctcGh0JywgJzIuMDAwMDAwJywgJy1tcycsICcxNicsICctdG4nLCAnOCcsICctbWEnLCAnMjAwJywgJy1pbWFlJywgJzxpbmZpbGUubWFlPicsICctb21hZScsICc8b3V0ZmlsZS5tYWU+Jw==

>  <s_epik_input>  (20) 
W2NIXTFbY0hdW2NIXVtjSF1jKFtOSDJdKWMxW0NAQEhdKFtDSDNdKVtOSF1jKGMoYzIzKVtjSF1bY0hdW2NIXVtjSF0zKW5jKG4yKVtOSF1bQ0gyXWM0W2NIXVtjSF1jKFtjSF1bY0hdNClbTkhdW0NIXShbQ0gzXSlbQ0gzXQ==

>  <s_i_glide_gridfile>  (20) 
ATP-Grid

>  <s_lp_Force_Field>  (20) 
OPLS_2005

>  <s_lp_Variant>  (20) 
m_282030aaa____21899824____22360182____21952560-5

>  <s_lp_label>  (20) 
1189_sdstereoexpander_1_neutralizer_1_epik_3_stereoizer_1

>  <s_m_source_file>  (20) 
ATP-VSW-LIGPREP-001-in.maegz

>  <s_sd_BIOSOLVEIT.INFINISEE\_QUERY\_NAME>  (20) 
Ref-Lig

>  <s_sd_BIOSOLVEIT.INFINISEE\_QUERY\_SMILES>  (20) 
S(c1nc2c(cc1C[NH2+]Cc3ccc(cc3)C[NH+](C)C)cccc2)Cc4ccccc4

>  <s_sd_BIOSOLVEIT.INFINISEE\_REACTION\_NAME>  (20) 
m_282030aaa

>  <s_sd_BIOSOLVEIT.INFINISEE\_REAGENT1\_SMILES>  (20) 
[R1*]NCc1ccc(NC(C)C)cc1

>  <s_sd_BIOSOLVEIT.INFINISEE\_REAGENT2\_SMILES>  (20) 
[R2*]c1nc([R1*])c2c(n1)cccc2

>  <s_sd_BIOSOLVEIT.INFINISEE\_REAGENT3\_SMILES>  (20) 
[R2*]NC(c1c(N)cccc1)C

>  <s_sd_BIOSOLVEIT.INFINISEE\_SPACE>  (20) 
REALSpace_44bn_2023-08

>  <s_vsw_compound_code>  (20) 
38017

>  <s_vsw_variant>  (20) 
38017-5

>  <r_epik_Charging_Adjusted_Penalty>  (20) 
2.0998165687234902

>  <r_epik_Ionization_Penalty>  (20) 
2.3083999999999998

>  <r_epik_Ionization_Penalty_Charging>  (20) 
0

>  <r_epik_Ionization_Penalty_Neutral>  (20) 
2.3083999999999998

>  <r_epik_State_Penalty>  (20) 
2.0998000000000001

>  <r_i_docking_score>  (20) 
-1.7497014366516599

>  <r_i_glide_ecoul>  (20) 
-2.6792397499084499

>  <r_i_glide_eff_state_penalty>  (20) 
2.0998000000000001

>  <r_i_glide_einternal>  (20) 
2.8902540206909202

>  <r_i_glide_emodel>  (20) 
-47.105484918238503

>  <r_i_glide_energy>  (20) 
-38.602095127105699

>  <r_i_glide_erotb>  (20) 
0.76355864327071998

>  <r_i_glide_esite>  (20) 
-0.020551725738210201

>  <r_i_glide_evdw>  (20) 
-35.922855377197301

>  <r_i_glide_gscore>  (20) 
-3.8495014366516598

>  <r_i_glide_hbond>  (20) 
0

>  <r_i_glide_ligand_efficiency>  (20) 
-0.054678169895364302

>  <r_i_glide_ligand_efficiency_ln>  (20) 
-0.39180584672611501

>  <r_i_glide_ligand_efficiency_sa>  (20) 
-0.17359236862265301

>  <r_i_glide_lipo>  (20) 
-1.85846931996974

>  <r_i_glide_metal>  (20) 
-0

>  <r_i_glide_rewards>  (20) 
-0.53601030286829598

>  <r_lp_Energy>  (20) 
13.988111999999999

>  <r_qp_ACxDN^.5/SA>  (20) 
0.015579600000000001

>  <r_qp_CIQPlogS>  (20) 
-6.8140000000000001

>  <r_qp_EA(eV)>  (20) 
0.63600000000000001

>  <r_qp_FISA>  (20) 
82.471000000000004

>  <r_qp_FOSA>  (20) 
276.56700000000001

>  <r_qp_IP(eV)>  (20) 
7.8860000000000001

>  <r_qp_Jm>  (20) 
0.63503239663540201

>  <r_qp_PISA>  (20) 
321.76299999999998

>  <r_qp_PSA>  (20) 
77.289000000000001

>  <r_qp_PercentHumanOralAbsorption>  (20) 
100

>  <r_qp_QPPCaco>  (20) 
1636.165

>  <r_qp_QPPMDCK>  (20) 
842.30999999999995

>  <r_qp_QPlogBB>  (20) 
-0.71099999999999997

>  <r_qp_QPlogHERG>  (20) 
-5.2220000000000004

>  <r_qp_QPlogKhsa>  (20) 
0.65500000000000003

>  <r_qp_QPlogKp>  (20) 
-1.042

>  <r_qp_QPlogPC16>  (20) 
14.555

>  <r_qp_QPlogPo/w>  (20) 
4.8010000000000002

>  <r_qp_QPlogPoct>  (20) 
24.285

>  <r_qp_QPlogPw>  (20) 
13.638

>  <r_qp_QPlogS>  (20) 
-4.7850000000000001

>  <r_qp_QPpolrz>  (20) 
45.082999999999998

>  <r_qp_SASA>  (20) 
680.80100000000004

>  <r_qp_SAamideO>  (20) 
0

>  <r_qp_SAfluorine>  (20) 
0

>  <r_qp_WPSA>  (20) 
0

>  <r_qp_accptHB>  (20) 
5

>  <r_qp_dip^2/V>  (20) 
0.0081613999999999992

>  <r_qp_dipole>  (20) 
3.3170000000000002

>  <r_qp_donorHB>  (20) 
4.5

>  <r_qp_glob>  (20) 
0.86680120000000005

>  <r_qp_mol_MW>  (20) 
426.56299999999999

>  <r_qp_volume>  (20) 
1347.912

>  <r_sd_BIOSOLVEIT.INFINISEE\_FTREES\_SIMILARITY>  (20) 
0.91200000000000003

>  <r_sd_BIOSOLVEIT.LOGP>  (20) 
5.8174999999999999

>  <r_sd_BIOSOLVEIT.MOLECULAR\_WEIGHT>  (20) 
426.565

>  <r_sd_BIOSOLVEIT.TPSA>  (20) 
87.890000000000001

>  <i_epik_Tot_Q>  (20) 
0

>  <i_epik_Tot_abs_Q>  (20) 
0

>  <i_f3d_flags>  (20) 
0

>  <i_i_glide_confnum>  (20) 
9

>  <i_i_glide_lignum>  (20) 
302

>  <i_i_glide_posenum>  (20) 
7

>  <i_i_glide_rotatable_bonds>  (20) 
8

>  <i_lp_mmshare_version>  (20) 
65135

>  <i_m_ct_format>  (20) 
2

>  <i_m_source_file_index>  (20) 
1189

>  <i_qp_#NandO>  (20) 
6

>  <i_qp_#acid>  (20) 
0

>  <i_qp_#amide>  (20) 
0

>  <i_qp_#amidine>  (20) 
0

>  <i_qp_#amine>  (20) 
0

>  <i_qp_#in34>  (20) 
0

>  <i_qp_#in56>  (20) 
22

>  <i_qp_#metab>  (20) 
8

>  <i_qp_#nonHatm>  (20) 
32

>  <i_qp_#noncon>  (20) 
0

>  <i_qp_#ringatoms>  (20) 
22

>  <i_qp_#rotor>  (20) 
9

>  <i_qp_#rtvFG>  (20) 
0

>  <i_qp_#stars>  (20) 
1

>  <i_qp_CNS>  (20) 
-1

>  <i_qp_HumanOralAbsorption>  (20) 
3

>  <i_qp_RuleOfFive>  (20) 
0

>  <i_qp_RuleOfThree>  (20) 
1

>  <i_sd_BIOSOLVEIT.INFINISEE\_REAGENT1\_NAME>  (20) 
21899824

>  <i_sd_BIOSOLVEIT.INFINISEE\_REAGENT2\_NAME>  (20) 
22360182

>  <i_sd_BIOSOLVEIT.INFINISEE\_REAGENT3\_NAME>  (20) 
21952560

>  <i_sd_BIOSOLVEIT.INFINISEE\_RESULT\_RANK>  (20) 
39478

>  <i_sd_version>  (20) 
0

>  <b_lp_Chiralities_Consistent>  (20) 
1

>  <b_sd_chiral_flag>  (20) 
0

>  <acquisition_id>  (20) 
ATP-ACQ-0020

>  <canonical_id>  (20) 
ATP-HTVS-BE963CFE3042

>  <compound_code>  (20) 
38017

>  <title>  (20) 
m_282030aaa____21899824____22360182____21952560

>  <variant>  (20) 
38017-5

>  <selection_arm>  (20) 
descriptor_diversity

>  <priority>  (20) 
P0

>  <wave>  (20) 
1

>  <source_file>  (20) 
运行/运行/ATP-VSW/ATP-VSW-DOCK_HTVS_1-001_lib/ATP-VSW-DOCK_HTVS_1-001_lib

>  <canonical_smiles>  (20) 
CC(C)Nc1ccc(CNc2nc(N[C@H](C)c3ccccc3N)c3ccccc3n2)cc1

$$$$
ATP-ACQ-0021
     RDKit          3D

 53 56  0  0  0  0  0  0  0  0999 V2000
  197.9147  187.4717  159.4328 F   0  0  0  0  0  0  0  0  0  0  0  0
  197.2362  186.3441  159.1253 C   0  0  0  0  0  0  0  0  0  0  0  0
  197.8553  185.3355  158.3508 C   0  0  0  0  0  0  0  0  0  0  0  0
  197.1460  184.1560  158.0253 C   0  0  0  0  0  0  0  0  0  0  0  0
  195.8163  184.0116  158.4967 C   0  0  0  0  0  0  0  0  0  0  0  0
  195.2044  185.0134  159.2583 C   0  0  0  0  0  0  0  0  0  0  0  0
  195.9107  186.1802  159.5752 C   0  0  0  0  0  0  0  0  0  0  0  0
  197.8420  183.0804  157.1880 C   0  0  1  0  0  0  0  0  0  0  0  0
  197.3059  181.6581  157.4240 C   0  0  1  0  0  0  0  0  0  0  0  0
  196.0292  181.4396  156.7322 N   0  0  2  0  0  0  0  0  0  0  0  0
  198.1802  180.5885  156.9258 C   0  0  0  0  0  0  0  0  0  0  0  0
  198.9017  179.6630  156.5968 C   0  0  0  0  0  0  0  0  0  0  0  0
  199.7629  178.5688  156.1612 C   0  0  0  0  0  0  0  0  0  0  0  0
  199.9945  178.2846  154.7928 C   0  0  0  0  0  0  0  0  0  0  0  0
  199.3429  179.0397  153.7841 N   0  0  0  0  0  0  0  0  0  0  0  0
  199.5744  180.3352  153.5138 C   0  0  0  0  0  0  0  0  0  0  0  0
  200.4772  180.9926  154.0340 O   0  0  0  0  0  0  0  0  0  0  0  0
  198.5885  180.9879  152.5929 C   0  0  0  0  0  0  0  0  0  0  0  0
  197.9180  180.2351  151.5982 C   0  0  0  0  0  0  0  0  0  0  0  0
  196.9932  180.8638  150.7398 C   0  0  0  0  0  0  0  0  0  0  0  0
  196.3169  180.0731  149.7315 C   0  0  0  0  0  0  0  0  0  0  0  0
  195.7812  179.4374  148.9289 N   0  0  0  0  0  0  0  0  0  0  0  0
  196.7461  182.2438  150.8499 C   0  0  0  0  0  0  0  0  0  0  0  0
  197.4137  182.9999  151.8297 C   0  0  0  0  0  0  0  0  0  0  0  0
  198.3390  182.3762  152.6879 C   0  0  0  0  0  0  0  0  0  0  0  0
  200.8099  177.1692  154.4673 C   0  0  0  0  0  0  0  0  0  0  0  0
  201.3896  176.4163  155.5267 C   0  0  0  0  0  0  0  0  0  0  0  0
  201.1409  176.6886  156.8251 N   0  0  0  0  0  0  0  0  0  0  0  0
  200.3573  177.7412  157.1292 C   0  0  0  0  0  0  0  0  0  0  0  0
  202.2390  175.3372  155.2114 C   0  0  0  0  0  0  0  0  0  0  0  0
  202.5260  175.0043  153.8743 C   0  0  0  0  0  0  0  0  0  0  0  0
  201.9429  175.7439  152.8306 C   0  0  0  0  0  0  0  0  0  0  0  0
  201.0866  176.8239  153.1216 C   0  0  0  0  0  0  0  0  0  0  0  0
  195.7398  180.4811  157.0236 H   0  0  0  0  0  0  0  0  0  0  0  0
  196.1406  181.4805  155.7368 H   0  0  0  0  0  0  0  0  0  0  0  0
  198.8766  185.4816  158.0165 H   0  0  0  0  0  0  0  0  0  0  0  0
  195.1911  183.1618  158.3068 H   0  0  0  0  0  0  0  0  0  0  0  0
  194.1835  184.8671  159.5732 H   0  0  0  0  0  0  0  0  0  0  0  0
  195.4281  186.9519  160.1581 H   0  0  0  0  0  0  0  0  0  0  0  0
  197.7513  183.3307  156.1302 H   0  0  0  0  0  0  0  0  0  0  0  0
  198.9116  183.1099  157.4099 H   0  0  0  0  0  0  0  0  0  0  0  0
  197.1813  181.4729  158.4899 H   0  0  0  0  0  0  0  0  0  0  0  0
  198.6388  178.5610  153.2425 H   0  0  0  0  0  0  0  0  0  0  0  0
  198.0960  179.1702  151.4881 H   0  0  0  0  0  0  0  0  0  0  0  0
  196.0537  182.7260  150.1787 H   0  0  0  0  0  0  0  0  0  0  0  0
  197.2275  184.0573  151.9102 H   0  0  0  0  0  0  0  0  0  0  0  0
  198.8436  182.9662  153.4368 H   0  0  0  0  0  0  0  0  0  0  0  0
  200.1877  177.9165  158.1856 H   0  0  0  0  0  0  0  0  0  0  0  0
  202.6913  174.7738  156.0132 H   0  0  0  0  0  0  0  0  0  0  0  0
  203.1945  174.1808  153.6534 H   0  0  0  0  0  0  0  0  0  0  0  0
  202.1733  175.4938  151.8040 H   0  0  0  0  0  0  0  0  0  0  0  0
  200.6655  177.3823  152.3008 H   0  0  0  0  0  0  0  0  0  0  0  0
  195.3141  182.0946  157.0084 H   0  0  0  0  0  0  0  0  0  0  0  0
  1  2  1  0
  2  3  2  0
  2  7  1  0
  3  4  1  0
  3 36  1  0
  4  5  2  0
  4  8  1  0
  5  6  1  0
  5 37  1  0
  6  7  2  0
  6 38  1  0
  7 39  1  0
  8  9  1  0
  8 40  1  6
  8 41  1  0
  9 10  1  0
  9 11  1  0
  9 42  1  1
 10 34  1  6
 10 35  1  0
 10 53  1  0
 11 12  3  0
 12 13  1  0
 13 14  2  0
 13 29  1  0
 14 15  1  0
 14 26  1  0
 15 16  1  0
 15 43  1  0
 16 17  2  0
 16 18  1  0
 18 19  1  0
 18 25  2  0
 19 20  2  0
 19 44  1  0
 20 21  1  0
 20 23  1  0
 21 22  3  0
 23 24  2  0
 23 45  1  0
 24 25  1  0
 24 46  1  0
 25 47  1  0
 26 27  1  0
 26 33  2  0
 27 28  1  0
 27 30  2  0
 28 29  2  0
 29 48  1  0
 30 31  1  0
 30 49  1  0
 31 32  2  0
 31 50  1  0
 32 33  1  0
 32 51  1  0
 33 52  1  0
M  CHG  1  10   1
M  END
>  <s_epik_cmdline>  (21) 
J2VwaWtfcHl0aG9uJywgJy1waCcsICc3LjAwMDAwMCcsICctcGh0JywgJzIuMDAwMDAwJywgJy1tcycsICcxNicsICctdG4nLCAnOCcsICctbWEnLCAnMjAwJywgJy1pbWFlJywgJzxpbmZpbGUubWFlPicsICctb21hZScsICc8b3V0ZmlsZS5tYWU+Jw==

>  <s_epik_input>  (21) 
RmMxW2NIXWMoW2NIXVtjSF1bY0hdMSlbQ0gyXVtDQEBIXShbTkgyXSlDI0NjKFtjSF1uYyhjMjMpW2NIXVtjSF1bY0hdW2NIXTMpYzJbTkhdQyg9TyljNFtjSF1jKEMjTilbY0hdW2NIXVtjSF00

>  <s_i_glide_gridfile>  (21) 
ATP-Grid

>  <s_lp_Force_Field>  (21) 
OPLS_2005

>  <s_lp_Variant>  (21) 
rxn503b____EMOL483931____EMOL13728749____EMOL313110234-3

>  <s_lp_label>  (21) 
3042_sdstereoexpander_1_neutralizer_1_epik_2_stereoizer_1

>  <s_m_source_file>  (21) 
ATP-VSW-LIGPREP-002-in.maegz

>  <s_sd_BIOSOLVEIT.INFINISEE\_QUERY\_NAME>  (21) 
Ref-Lig

>  <s_sd_BIOSOLVEIT.INFINISEE\_QUERY\_SMILES>  (21) 
S(c1nc2c(cc1C[NH2+]Cc3ccc(cc3)C[NH+](C)C)cccc2)Cc4ccccc4

>  <s_sd_BIOSOLVEIT.INFINISEE\_REACTION\_NAME>  (21) 
rxn503b

>  <s_sd_BIOSOLVEIT.INFINISEE\_REAGENT1\_NAME>  (21) 
EMOL483931

>  <s_sd_BIOSOLVEIT.INFINISEE\_REAGENT1\_SMILES>  (21) 
O=C(O)c1cc(C#N)ccc1

>  <s_sd_BIOSOLVEIT.INFINISEE\_REAGENT2\_NAME>  (21) 
EMOL13728749

>  <s_sd_BIOSOLVEIT.INFINISEE\_REAGENT2\_SMILES>  (21) 
Brc1c(N)c2c(nc1)cccc2

>  <s_sd_BIOSOLVEIT.INFINISEE\_REAGENT3\_NAME>  (21) 
EMOL313110234

>  <s_sd_BIOSOLVEIT.INFINISEE\_REAGENT3\_SMILES>  (21) 
Fc1cc(ccc1)CC(N)C#C

>  <s_sd_BIOSOLVEIT.INFINISEE\_SPACE>  (21) 
eXplore_7tr_2022-12

>  <s_vsw_compound_code>  (21) 
97314

>  <s_vsw_variant>  (21) 
97314-3

>  <r_epik_Charging_Adjusted_Penalty>  (21) 
1.22591159016581

>  <r_epik_Ionization_Penalty>  (21) 
0.61380000000000001

>  <r_epik_Ionization_Penalty_Charging>  (21) 
0.61299999999999999

>  <r_epik_Ionization_Penalty_Neutral>  (21) 
0.00080000000000000004

>  <r_epik_State_Penalty>  (21) 
0.61299999999999999

>  <r_i_docking_score>  (21) 
-4.5313521745392498

>  <r_i_glide_ecoul>  (21) 
-11.294760704040501

>  <r_i_glide_eff_state_penalty>  (21) 
0.61299999999999999

>  <r_i_glide_einternal>  (21) 
7.9029235839843803

>  <r_i_glide_emodel>  (21) 
-61.146071369453303

>  <r_i_glide_energy>  (21) 
-44.439677238464398

>  <r_i_glide_erotb>  (21) 
0.63040519659612704

>  <r_i_glide_esite>  (21) 
-0.104475737217086

>  <r_i_glide_evdw>  (21) 
-33.1449165344238

>  <r_i_glide_gscore>  (21) 
-5.1443521745392502

>  <r_i_glide_hbond>  (21) 
-0.22582352807442699

>  <r_i_glide_ligand_efficiency>  (21) 
-0.13731370225876499

>  <r_i_glide_ligand_efficiency_ln>  (21) 
-1.0077492615316299

>  <r_i_glide_ligand_efficiency_sa>  (21) 
-0.44043841346048201

>  <r_i_glide_lipo>  (21) 
-1.18938276391791

>  <r_i_glide_metal>  (21) 
-0

>  <r_i_glide_rewards>  (21) 
-0.90361540959867703

>  <r_lp_Energy>  (21) 
32.033431999999998

>  <r_qp_ACxDN^.5/SA>  (21) 
0.0135993

>  <r_qp_CIQPlogS>  (21) 
-6.7560000000000002

>  <r_qp_EA(eV)>  (21) 
1.3049999999999999

>  <r_qp_FISA>  (21) 
163.30600000000001

>  <r_qp_FOSA>  (21) 
54.777999999999999

>  <r_qp_IP(eV)>  (21) 
8.9580000000000002

>  <r_qp_Jm>  (21) 
1.52657864758806e-05

>  <r_qp_PISA>  (21) 
499.81999999999999

>  <r_qp_PSA>  (21) 
97.745999999999995

>  <r_qp_PercentHumanOralAbsorption>  (21) 
84.097999999999999

>  <r_qp_QPPCaco>  (21) 
69.850999999999999

>  <r_qp_QPPMDCK>  (21) 
55.261000000000003

>  <r_qp_QPlogBB>  (21) 
-1.1919999999999999

>  <r_qp_QPlogHERG>  (21) 
-8.1869999999999994

>  <r_qp_QPlogKhsa>  (21) 
0.68799999999999994

>  <r_qp_QPlogKp>  (21) 
-4.0629999999999997

>  <r_qp_QPlogPC16>  (21) 
16.132999999999999

>  <r_qp_QPlogPo/w>  (21) 
4.1239999999999997

>  <r_qp_QPlogPoct>  (21) 
24.556999999999999

>  <r_qp_QPlogPw>  (21) 
14.624000000000001

>  <r_qp_QPlogS>  (21) 
-6.391

>  <r_qp_QPpolrz>  (21) 
48.338000000000001

>  <r_qp_SASA>  (21) 
764.17999999999995

>  <r_qp_SAamideO>  (21) 
0

>  <r_qp_SAfluorine>  (21) 
46.276000000000003

>  <r_qp_WPSA>  (21) 
46.276000000000003

>  <r_qp_accptHB>  (21) 
6

>  <r_qp_dip^2/V>  (21) 
0.021704600000000001

>  <r_qp_dipole>  (21) 
5.4539999999999997

>  <r_qp_donorHB>  (21) 
3

>  <r_qp_glob>  (21) 
0.78090950000000003

>  <r_qp_mol_MW>  (21) 
434.47199999999998

>  <r_qp_volume>  (21) 
1370.7149999999999

>  <r_sd_BIOSOLVEIT.INFINISEE\_FTREES\_SIMILARITY>  (21) 
0.90200000000000002

>  <r_sd_BIOSOLVEIT.LOGP>  (21) 
3.7025800000000002

>  <r_sd_BIOSOLVEIT.MOLECULAR\_WEIGHT>  (21) 
435.48000000000002

>  <r_sd_BIOSOLVEIT.TPSA>  (21) 
93.420000000000002

>  <i_epik_Tot_Q>  (21) 
1

>  <i_epik_Tot_abs_Q>  (21) 
1

>  <i_f3d_flags>  (21) 
0

>  <i_i_glide_confnum>  (21) 
4

>  <i_i_glide_lignum>  (21) 
104

>  <i_i_glide_posenum>  (21) 
6

>  <i_i_glide_rotatable_bonds>  (21) 
7

>  <i_lp_mmshare_version>  (21) 
65135

>  <i_m_ct_format>  (21) 
2

>  <i_m_source_file_index>  (21) 
3042

>  <i_qp_#NandO>  (21) 
5

>  <i_qp_#acid>  (21) 
0

>  <i_qp_#amide>  (21) 
0

>  <i_qp_#amidine>  (21) 
0

>  <i_qp_#amine>  (21) 
1

>  <i_qp_#in34>  (21) 
0

>  <i_qp_#in56>  (21) 
22

>  <i_qp_#metab>  (21) 
5

>  <i_qp_#nonHatm>  (21) 
33

>  <i_qp_#noncon>  (21) 
0

>  <i_qp_#ringatoms>  (21) 
22

>  <i_qp_#rotor>  (21) 
8

>  <i_qp_#rtvFG>  (21) 
0

>  <i_qp_#stars>  (21) 
1

>  <i_qp_CNS>  (21) 
-2

>  <i_qp_HumanOralAbsorption>  (21) 
1

>  <i_qp_RuleOfFive>  (21) 
0

>  <i_qp_RuleOfThree>  (21) 
1

>  <i_sd_BIOSOLVEIT.INFINISEE\_RESULT\_RANK>  (21) 
90207

>  <i_sd_version>  (21) 
0

>  <b_lp_Chiralities_Consistent>  (21) 
1

>  <b_sd_chiral_flag>  (21) 
0

>  <acquisition_id>  (21) 
ATP-ACQ-0021

>  <canonical_id>  (21) 
ATP-HTVS-8F8686BB907F

>  <compound_code>  (21) 
97314

>  <title>  (21) 
rxn503b____EMOL483931____EMOL13728749____EMOL313110234

>  <variant>  (21) 
97314-3

>  <selection_arm>  (21) 
score_calibration

>  <priority>  (21) 
P0

>  <wave>  (21) 
1

>  <source_file>  (21) 
运行/运行/ATP-VSW/ATP-VSW-DOCK_HTVS_1-003_lib/ATP-VSW-DOCK_HTVS_1-003_lib.mae

>  <canonical_smiles>  (21) 
N#Cc1cccc(C(=O)Nc2c(C#C[C@H]([NH3+])Cc3cccc(F)c3)cnc3ccccc23)c1

$$$$
ATP-ACQ-0022
     RDKit          3D

 56 59  0  0  0  0  0  0  0  0999 V2000
  195.5443  184.7616  160.5333 F   0  0  0  0  0  0  0  0  0  0  0  0
  196.6285  184.6543  159.7317 C   0  0  0  0  0  0  0  0  0  0  0  0
  196.7647  183.5284  158.9074 C   0  0  0  0  0  0  0  0  0  0  0  0
  197.8742  183.4025  158.0345 C   0  0  0  0  0  0  0  0  0  0  0  0
  198.8585  184.4111  158.0364 C   0  0  0  0  0  0  0  0  0  0  0  0
  198.7324  185.5277  158.8865 C   0  0  0  0  0  0  0  0  0  0  0  0
  197.6118  185.6556  159.7274 C   0  0  0  0  0  0  0  0  0  0  0  0
  198.0280  182.2030  157.1044 C   0  0  1  0  0  0  0  0  0  0  0  0
  196.8477  182.0278  156.1292 C   0  0  2  0  0  0  0  0  0  0  0  0
  195.6666  181.4370  156.8000 N   0  0  2  0  0  0  0  0  0  0  0  0
  197.1452  181.1465  154.9957 C   0  0  0  0  0  0  0  0  0  0  0  0
  197.3898  180.4610  154.0112 C   0  0  0  0  0  0  0  0  0  0  0  0
  197.7039  179.7280  152.7978 C   0  0  0  0  0  0  0  0  0  0  0  0
  198.7940  178.8223  152.7050 C   0  0  0  0  0  0  0  0  0  0  0  0
  199.0269  178.1307  151.5603 N   0  0  0  0  0  0  0  0  0  0  0  0
  198.2446  178.3040  150.4759 C   0  0  0  0  0  0  0  0  0  0  0  0
  197.1656  179.2239  150.4861 C   0  0  0  0  0  0  0  0  0  0  0  0
  196.8894  179.9306  151.6670 C   0  0  0  0  0  0  0  0  0  0  0  0
  196.3844  179.4333  149.3324 C   0  0  0  0  0  0  0  0  0  0  0  0
  196.6436  178.6927  148.1660 C   0  0  0  0  0  0  0  0  0  0  0  0
  197.6970  177.7600  148.1410 C   0  0  0  0  0  0  0  0  0  0  0  0
  198.4811  177.5659  149.2951 C   0  0  0  0  0  0  0  0  0  0  0  0
  199.5485  178.5461  153.8785 N   0  0  0  0  0  0  0  0  0  0  0  0
  200.7812  178.0417  153.9401 C   0  0  0  0  0  0  0  0  0  0  0  0
  201.5931  178.1767  153.0112 O   0  0  0  0  0  0  0  0  0  0  0  0
  201.1964  177.3753  155.2659 C   0  0  1  0  0  0  0  0  0  0  0  0
  202.0123  176.1139  155.0289 C   0  0  0  0  0  0  0  0  0  0  0  0
  203.3925  176.2013  154.7389 C   0  0  0  0  0  0  0  0  0  0  0  0
  204.1551  175.0335  154.5284 C   0  0  0  0  0  0  0  0  0  0  0  0
  203.5495  173.7623  154.5896 C   0  0  0  0  0  0  0  0  0  0  0  0
  204.2987  172.6346  154.3811 O   0  0  0  0  0  0  0  0  0  0  0  0
  202.1682  173.6706  154.8653 C   0  0  0  0  0  0  0  0  0  0  0  0
  201.4047  174.8362  155.0924 C   0  0  0  0  0  0  0  0  0  0  0  0
  194.9001  181.4396  156.1406 H   0  0  0  0  0  0  0  0  0  0  0  0
  195.3675  182.0321  157.5417 H   0  0  0  0  0  0  0  0  0  0  0  0
  195.9936  182.7843  158.9899 H   0  0  0  0  0  0  0  0  0  0  0  0
  199.7264  184.3355  157.3952 H   0  0  0  0  0  0  0  0  0  0  0  0
  199.4980  186.2869  158.8941 H   0  0  0  0  0  0  0  0  0  0  0  0
  197.5141  186.5055  160.3847 H   0  0  0  0  0  0  0  0  0  0  0  0
  198.9654  182.3040  156.5430 H   0  0  0  0  0  0  0  0  0  0  0  0
  198.1299  181.3025  157.7088 H   0  0  0  0  0  0  0  0  0  0  0  0
  196.5751  182.9942  155.6875 H   0  0  0  0  0  0  0  0  0  0  0  0
  196.0730  180.6346  151.6972 H   0  0  0  0  0  0  0  0  0  0  0  0
  195.5658  180.1391  149.3482 H   0  0  0  0  0  0  0  0  0  0  0  0
  196.0391  178.8282  147.2811 H   0  0  0  0  0  0  0  0  0  0  0  0
  197.8976  177.2089  147.2325 H   0  0  0  0  0  0  0  0  0  0  0  0
  199.2896  176.8521  149.2648 H   0  0  0  0  0  0  0  0  0  0  0  0
  199.0526  178.6427  154.7560 H   0  0  0  0  0  0  0  0  0  0  0  0
  201.7547  178.0800  155.8884 H   0  0  0  0  0  0  0  0  0  0  0  0
  200.3102  177.0991  155.8460 H   0  0  0  0  0  0  0  0  0  0  0  0
  203.8713  177.1678  154.6974 H   0  0  0  0  0  0  0  0  0  0  0  0
  205.2093  175.1090  154.3140 H   0  0  0  0  0  0  0  0  0  0  0  0
  203.8169  171.8037  154.2816 H   0  0  0  0  0  0  0  0  0  0  0  0
  201.7077  172.6976  154.9090 H   0  0  0  0  0  0  0  0  0  0  0  0
  200.3549  174.7435  155.3198 H   0  0  0  0  0  0  0  0  0  0  0  0
  195.8153  180.4780  157.1648 H   0  0  0  0  0  0  0  0  0  0  0  0
  1  2  1  0
  2  3  2  0
  2  7  1  0
  3  4  1  0
  3 36  1  0
  4  5  2  0
  4  8  1  0
  5  6  1  0
  5 37  1  0
  6  7  2  0
  6 38  1  0
  7 39  1  0
  8  9  1  0
  8 40  1  6
  8 41  1  0
  9 10  1  0
  9 11  1  0
  9 42  1  6
 10 34  1  6
 10 35  1  0
 10 56  1  0
 11 12  3  0
 12 13  1  0
 13 14  1  0
 13 18  2  0
 14 15  2  0
 14 23  1  0
 15 16  1  0
 16 17  1  0
 16 22  2  0
 17 18  1  0
 17 19  2  0
 18 43  1  0
 19 20  1  0
 19 44  1  0
 20 21  2  0
 20 45  1  0
 21 22  1  0
 21 46  1  0
 22 47  1  0
 23 24  1  0
 23 48  1  0
 24 25  2  0
 24 26  1  0
 26 27  1  0
 26 49  1  1
 26 50  1  0
 27 28  1  0
 27 33  2  0
 28 29  2  0
 28 51  1  0
 29 30  1  0
 29 52  1  0
 30 31  1  0
 30 32  2  0
 31 53  1  0
 32 33  1  0
 32 54  1  0
 33 55  1  0
M  CHG  1  10   1
M  END
>  <s_epik_cmdline>  (22) 
J2VwaWtfcHl0aG9uJywgJy1waCcsICc3LjAwMDAwMCcsICctcGh0JywgJzIuMDAwMDAwJywgJy1tcycsICcxNicsICctdG4nLCAnOCcsICctbWEnLCAnMjAwJywgJy1pbWFlJywgJzxpbmZpbGUubWFlPicsICctb21hZScsICc8b3V0ZmlsZS5tYWU+Jw==

>  <s_epik_input>  (22) 
RmMxW2NIXWMoW2NIXVtjSF1bY0hdMSlbQ0gyXVtDQEhdKFtOSDJdKUMjQ2MoW2NIXWMoYzIzKVtjSF1bY0hdW2NIXVtjSF0zKWMobjIpW05IXUMoPU8pW0NIMl1jNFtjSF1bY0hdYyhbT0hdKVtjSF1bY0hdNA==

>  <s_i_glide_gridfile>  (22) 
ATP-Grid

>  <s_lp_Force_Field>  (22) 
OPLS_2005

>  <s_lp_Variant>  (22) 
rxn503b____EMOL521529____EMOL44466703____EMOL313110234-4

>  <s_lp_label>  (22) 
2664_sdstereoexpander_2_neutralizer_1_epik_2_stereoizer_1

>  <s_m_source_file>  (22) 
ATP-VSW-LIGPREP-001-in.maegz

>  <s_sd_BIOSOLVEIT.INFINISEE\_QUERY\_NAME>  (22) 
Ref-Lig

>  <s_sd_BIOSOLVEIT.INFINISEE\_QUERY\_SMILES>  (22) 
S(c1nc2c(cc1C[NH2+]Cc3ccc(cc3)C[NH+](C)C)cccc2)Cc4ccccc4

>  <s_sd_BIOSOLVEIT.INFINISEE\_REACTION\_NAME>  (22) 
rxn503b

>  <s_sd_BIOSOLVEIT.INFINISEE\_REAGENT1\_NAME>  (22) 
EMOL521529

>  <s_sd_BIOSOLVEIT.INFINISEE\_REAGENT1\_SMILES>  (22) 
O=C(O)Cc1ccc(O)cc1

>  <s_sd_BIOSOLVEIT.INFINISEE\_REAGENT2\_NAME>  (22) 
EMOL44466703

>  <s_sd_BIOSOLVEIT.INFINISEE\_REAGENT2\_SMILES>  (22) 
Brc1c(nc2c(c1)cccc2)N

>  <s_sd_BIOSOLVEIT.INFINISEE\_REAGENT3\_NAME>  (22) 
EMOL313110234

>  <s_sd_BIOSOLVEIT.INFINISEE\_REAGENT3\_SMILES>  (22) 
Fc1cc(ccc1)CC(N)C#C

>  <s_sd_BIOSOLVEIT.INFINISEE\_SPACE>  (22) 
eXplore_7tr_2022-12

>  <s_vsw_compound_code>  (22) 
85217

>  <s_vsw_variant>  (22) 
85217-4

>  <r_epik_Charging_Adjusted_Penalty>  (22) 
1.2271758803980499

>  <r_epik_Ionization_Penalty>  (22) 
0.61439999999999995

>  <r_epik_Ionization_Penalty_Charging>  (22) 
0.61299999999999999

>  <r_epik_Ionization_Penalty_Neutral>  (22) 
0.0014

>  <r_epik_State_Penalty>  (22) 
0.61419999999999997

>  <r_i_docking_score>  (22) 
-6.4929946623529302

>  <r_i_glide_ecoul>  (22) 
-19.282735824585

>  <r_i_glide_eff_state_penalty>  (22) 
0.61419999999999997

>  <r_i_glide_einternal>  (22) 
9.4100675582885707

>  <r_i_glide_emodel>  (22) 
-79.623200691425794

>  <r_i_glide_energy>  (22) 
-51.664319992065401

>  <r_i_glide_erotb>  (22) 
0.72034826401853302

>  <r_i_glide_esite>  (22) 
-0.100451183419526

>  <r_i_glide_evdw>  (22) 
-32.381584167480497

>  <r_i_glide_gscore>  (22) 
-7.1071946623529296

>  <r_i_glide_hbond>  (22) 
-0.48418838982917001

>  <r_i_glide_ligand_efficiency>  (22) 
-0.19675741401069499

>  <r_i_glide_ligand_efficiency_ln>  (22) 
-1.44400839398018

>  <r_i_glide_ligand_efficiency_sa>  (22) 
-0.63110615938494996

>  <r_i_glide_lipo>  (22) 
-1.9121235292468199

>  <r_i_glide_metal>  (22) 
-0

>  <r_i_glide_rewards>  (22) 
-0.81929024181418098

>  <r_lp_Energy>  (22) 
21.141826999999999

>  <r_lp_tautomer_probability>  (22) 
0.999999999997365

>  <r_qp_ACxDN^.5/SA>  (22) 
0.0143331

>  <r_qp_CIQPlogS>  (22) 
-6.0030000000000001

>  <r_qp_EA(eV)>  (22) 
0.95599999999999996

>  <r_qp_FISA>  (22) 
122.953

>  <r_qp_FOSA>  (22) 
91.137

>  <r_qp_IP(eV)>  (22) 
8.6509999999999998

>  <r_qp_Jm>  (22) 
0.0042910865585608403

>  <r_qp_PISA>  (22) 
472.726

>  <r_qp_PSA>  (22) 
92.001999999999995

>  <r_qp_PercentHumanOralAbsorption>  (22) 
93.067999999999998

>  <r_qp_QPPCaco>  (22) 
168.59200000000001

>  <r_qp_QPPMDCK>  (22) 
142.292

>  <r_qp_QPlogBB>  (22) 
-0.69999999999999996

>  <r_qp_QPlogHERG>  (22) 
-7.4939999999999998

>  <r_qp_QPlogKhsa>  (22) 
0.70099999999999996

>  <r_qp_QPlogKp>  (22) 
-3.319

>  <r_qp_QPlogPC16>  (22) 
15.784000000000001

>  <r_qp_QPlogPo/w>  (22) 
4.4859999999999998

>  <r_qp_QPlogPoct>  (22) 
25.675999999999998

>  <r_qp_QPlogPw>  (22) 
14.593999999999999

>  <r_qp_QPlogS>  (22) 
-4.6920000000000002

>  <r_qp_QPpolrz>  (22) 
47.552999999999997

>  <r_qp_SASA>  (22) 
732.572

>  <r_qp_SAamideO>  (22) 
0

>  <r_qp_SAfluorine>  (22) 
45.756

>  <r_qp_WPSA>  (22) 
45.756

>  <r_qp_accptHB>  (22) 
5.25

>  <r_qp_dip^2/V>  (22) 
0.0553851

>  <r_qp_dipole>  (22) 
8.7219999999999995

>  <r_qp_donorHB>  (22) 
4

>  <r_qp_glob>  (22) 
0.81574040000000003

>  <r_qp_mol_MW>  (22) 
439.488

>  <r_qp_volume>  (22) 
1373.585

>  <r_sd_BIOSOLVEIT.INFINISEE\_FTREES\_SIMILARITY>  (22) 
0.90900000000000003

>  <r_sd_BIOSOLVEIT.LOGP>  (22) 
3.4653999999999998

>  <r_sd_BIOSOLVEIT.MOLECULAR\_WEIGHT>  (22) 
440.49599999999998

>  <r_sd_BIOSOLVEIT.TPSA>  (22) 
89.859999999999999

>  <i_epik_Tot_Q>  (22) 
1

>  <i_epik_Tot_abs_Q>  (22) 
1

>  <i_f3d_flags>  (22) 
0

>  <i_i_glide_confnum>  (22) 
3

>  <i_i_glide_lignum>  (22) 
1173

>  <i_i_glide_posenum>  (22) 
17

>  <i_i_glide_rotatable_bonds>  (22) 
9

>  <i_lp_mmshare_version>  (22) 
65135

>  <i_m_ct_format>  (22) 
2

>  <i_m_source_file_index>  (22) 
2664

>  <i_qp_#NandO>  (22) 
5

>  <i_qp_#acid>  (22) 
0

>  <i_qp_#amide>  (22) 
0

>  <i_qp_#amidine>  (22) 
0

>  <i_qp_#amine>  (22) 
1

>  <i_qp_#in34>  (22) 
0

>  <i_qp_#in56>  (22) 
22

>  <i_qp_#metab>  (22) 
6

>  <i_qp_#nonHatm>  (22) 
33

>  <i_qp_#noncon>  (22) 
0

>  <i_qp_#ringatoms>  (22) 
22

>  <i_qp_#rotor>  (22) 
9

>  <i_qp_#rtvFG>  (22) 
0

>  <i_qp_#stars>  (22) 
1

>  <i_qp_CNS>  (22) 
0

>  <i_qp_HumanOralAbsorption>  (22) 
3

>  <i_qp_RuleOfFive>  (22) 
0

>  <i_qp_RuleOfThree>  (22) 
0

>  <i_sd_BIOSOLVEIT.INFINISEE\_RESULT\_RANK>  (22) 
48132

>  <i_sd_version>  (22) 
0

>  <b_lp_Chiralities_Consistent>  (22) 
1

>  <b_sd_chiral_flag>  (22) 
0

>  <acquisition_id>  (22) 
ATP-ACQ-0022

>  <canonical_id>  (22) 
ATP-HTVS-AD7FBCC01633

>  <compound_code>  (22) 
85217

>  <title>  (22) 
rxn503b____EMOL521529____EMOL44466703____EMOL313110234

>  <variant>  (22) 
85217-4

>  <selection_arm>  (22) 
exploitation

>  <priority>  (22) 
P0

>  <wave>  (22) 
1

>  <source_file>  (22) 
运行/运行/ATP-VSW/ATP-VSW-DOCK_HTVS_1-001_lib/ATP-VSW-DOCK_HTVS_1-001_lib

>  <canonical_smiles>  (22) 
[NH3+][C@H](C#Cc1cc2ccccc2nc1NC(=O)Cc1ccc(O)cc1)Cc1cccc(F)c1

$$$$
ATP-ACQ-0023
     RDKit          3D

 56 59  0  0  0  0  0  0  0  0999 V2000
  198.2206  186.5849  159.7146 O   0  0  0  0  0  0  0  0  0  0  0  0
  197.0104  186.7135  159.6888 C   0  0  0  0  0  0  0  0  0  0  0  0
  196.4082  187.8827  159.9592 N   0  0  0  0  0  0  0  0  0  0  0  0
  197.1106  189.0713  160.4188 C   0  0  1  0  0  0  0  0  0  0  0  0
  198.4158  189.3890  159.6514 C   0  0  1  0  0  0  0  0  0  0  0  0
  198.9405  190.5791  160.1628 O   0  0  0  0  0  0  0  0  0  0  0  0
  196.1134  185.5611  159.3330 C   0  0  0  0  0  0  0  0  0  0  0  0
  196.4503  184.6172  158.3157 C   0  0  0  0  0  0  0  0  0  0  0  0
  195.5716  183.5385  158.0497 C   0  0  0  0  0  0  0  0  0  0  0  0
  194.3678  183.3929  158.7478 C   0  0  0  0  0  0  0  0  0  0  0  0
  194.0422  184.3232  159.7539 C   0  0  0  0  0  0  0  0  0  0  0  0
  194.9128  185.3902  160.0529 C   0  0  0  0  0  0  0  0  0  0  0  0
  197.6936  184.7440  157.4378 C   0  0  1  0  0  0  0  0  0  0  0  0
  198.6936  183.6785  157.6837 N   0  0  0  0  0  0  0  0  0  0  0  0
  199.4459  183.3792  156.4430 C   0  0  1  0  0  0  0  0  0  0  0  0
  200.6600  182.4435  156.6362 C   0  0  0  0  0  0  0  0  0  0  0  0
  201.8066  182.9131  157.3457 C   0  0  0  0  0  0  0  0  0  0  0  0
  201.8400  184.2038  157.9365 N   0  0  0  0  0  0  0  0  0  0  0  0
  200.8309  184.7754  158.6158 C   0  0  0  0  0  0  0  0  0  0  0  0
  200.9442  185.9192  159.0266 O   0  0  0  0  0  0  0  0  0  0  0  0
  199.5462  183.9523  158.8811 C   0  0  1  0  0  0  0  0  0  0  0  0
  202.9520  182.0850  157.4613 C   0  0  0  0  0  0  0  0  0  0  0  0
  202.9639  180.7933  156.9012 C   0  0  0  0  0  0  0  0  0  0  0  0
  201.8310  180.3219  156.2175 C   0  0  0  0  0  0  0  0  0  0  0  0
  200.6922  181.1324  156.0816 C   0  0  0  0  0  0  0  0  0  0  0  0
  198.5176  182.7955  155.3671 C   0  0  0  0  0  0  0  0  0  0  0  0
  197.5494  181.8323  155.7281 C   0  0  0  0  0  0  0  0  0  0  0  0
  196.6914  181.2748  154.7689 C   0  0  0  0  0  0  0  0  0  0  0  0
  196.8051  181.6581  153.4186 C   0  0  0  0  0  0  0  0  0  0  0  0
  197.7791  182.5996  153.0345 C   0  0  0  0  0  0  0  0  0  0  0  0
  198.6325  183.1705  154.0051 C   0  0  0  0  0  0  0  0  0  0  0  0
  195.3987  187.9536  159.9252 H   0  0  0  0  0  0  0  0  0  0  0  0
  196.4227  189.8999  160.3229 H   0  0  0  0  0  0  0  0  0  0  0  0
  197.3205  188.9725  161.4829 H   0  0  0  0  0  0  0  0  0  0  0  0
  199.1964  188.6412  159.7918 H   0  0  0  0  0  0  0  0  0  0  0  0
  198.2440  189.4911  158.5804 H   0  0  0  0  0  0  0  0  0  0  0  0
  199.2274  190.3562  161.0592 H   0  0  0  0  0  0  0  0  0  0  0  0
  195.7701  182.8455  157.2537 H   0  0  0  0  0  0  0  0  0  0  0  0
  193.6811  182.5910  158.4784 H   0  0  0  0  0  0  0  0  0  0  0  0
  193.1282  184.2164  160.3057 H   0  0  0  0  0  0  0  0  0  0  0  0
  194.6275  186.0522  160.8557 H   0  0  0  0  0  0  0  0  0  0  0  0
  197.2744  184.6983  156.4310 H   0  0  0  0  0  0  0  0  0  0  0  0
  198.1692  185.7209  157.4460 H   0  0  0  0  0  0  0  0  0  0  0  0
  199.8337  184.3173  156.0353 H   0  0  0  0  0  0  0  0  0  0  0  0
  202.7296  184.6773  157.9294 H   0  0  0  0  0  0  0  0  0  0  0  0
  198.9451  184.3783  159.7004 H   0  0  0  0  0  0  0  0  0  0  0  0
  199.8936  182.9812  159.2464 H   0  0  0  0  0  0  0  0  0  0  0  0
  203.8181  182.4469  157.9965 H   0  0  0  0  0  0  0  0  0  0  0  0
  203.8363  180.1658  156.9885 H   0  0  0  0  0  0  0  0  0  0  0  0
  201.8231  179.3357  155.7779 H   0  0  0  0  0  0  0  0  0  0  0  0
  199.8648  180.7109  155.5274 H   0  0  0  0  0  0  0  0  0  0  0  0
  197.4615  181.5191  156.7571 H   0  0  0  0  0  0  0  0  0  0  0  0
  195.9502  180.5551  155.0877 H   0  0  0  0  0  0  0  0  0  0  0  0
  196.1486  181.2181  152.6846 H   0  0  0  0  0  0  0  0  0  0  0  0
  197.8822  182.8804  152.0018 H   0  0  0  0  0  0  0  0  0  0  0  0
  199.3872  183.8906  153.7133 H   0  0  0  0  0  0  0  0  0  0  0  0
  1  2  2  0
  2  3  1  0
  2  7  1  0
  3  4  1  0
  3 32  1  0
  4  5  1  0
  4 33  1  1
  4 34  1  0
  5  6  1  0
  5 35  1  6
  5 36  1  0
  6 37  1  0
  7  8  1  0
  7 12  2  0
  8  9  2  0
  8 13  1  0
  9 10  1  0
  9 38  1  0
 10 11  2  0
 10 39  1  0
 11 12  1  0
 11 40  1  0
 12 41  1  0
 13 14  1  0
 13 42  1  6
 13 43  1  0
 14 15  1  0
 14 21  1  0
 15 16  1  0
 15 26  1  0
 15 44  1  6
 16 17  1  0
 16 25  2  0
 17 18  1  0
 17 22  2  0
 18 19  1  0
 18 45  1  0
 19 20  2  0
 19 21  1  0
 21 46  1  1
 21 47  1  0
 22 23  1  0
 22 48  1  0
 23 24  2  0
 23 49  1  0
 24 25  1  0
 24 50  1  0
 25 51  1  0
 26 27  2  0
 26 31  1  0
 27 28  1  0
 27 52  1  0
 28 29  2  0
 28 53  1  0
 29 30  1  0
 29 54  1  0
 30 31  2  0
 30 55  1  0
 31 56  1  0
M  END
>  <s_epik_cmdline>  (23) 
J2VwaWtfcHl0aG9uJywgJy1waCcsICc3LjAwMDAwMCcsICctcGh0JywgJzIuMDAwMDAwJywgJy1tcycsICcxNicsICctdG4nLCAnOCcsICctbWEnLCAnMjAwJywgJy1pbWFlJywgJzxpbmZpbGUubWFlPicsICctb21hZScsICc8b3V0ZmlsZS5tYWU+Jw==

>  <s_epik_input>  (23) 
W09IXVtDSDJdW0NIMl1bTkhdQyg9TyljMWMoW2NIXVtjSF1bY0hdW2NIXTEpW0NIMl1OKFtDQEBIXTJjM1tjSF1bY0hdW2NIXVtjSF1bY0hdMylbQ0gyXUMoPU8pW05IXWMoYzI0KVtjSF1bY0hdW2NIXVtjSF00

>  <s_i_glide_gridfile>  (23) 
ATP-Grid

>  <s_lp_Force_Field>  (23) 
OPLS_2005

>  <s_lp_Variant>  (23) 
rxn512b____EMOL299981165____EMOL1939773____EMOL6185419-1

>  <s_lp_label>  (23) 
2483_sdstereoexpander_1_neutralizer_1_epik_1_stereoizer_1

>  <s_m_source_file>  (23) 
ATP-VSW-LIGPREP-003-in.maegz

>  <s_sd_BIOSOLVEIT.INFINISEE\_QUERY\_NAME>  (23) 
Ref-Lig

>  <s_sd_BIOSOLVEIT.INFINISEE\_QUERY\_SMILES>  (23) 
S(c1nc2c(cc1C[NH2+]Cc3ccc(cc3)C[NH+](C)C)cccc2)Cc4ccccc4

>  <s_sd_BIOSOLVEIT.INFINISEE\_REACTION\_NAME>  (23) 
rxn512b

>  <s_sd_BIOSOLVEIT.INFINISEE\_REAGENT1\_NAME>  (23) 
EMOL299981165

>  <s_sd_BIOSOLVEIT.INFINISEE\_REAGENT1\_SMILES>  (23) 
OCCN

>  <s_sd_BIOSOLVEIT.INFINISEE\_REAGENT2\_NAME>  (23) 
EMOL1939773

>  <s_sd_BIOSOLVEIT.INFINISEE\_REAGENT2\_SMILES>  (23) 
BrCc1c(cccc1)C(=O)O

>  <s_sd_BIOSOLVEIT.INFINISEE\_REAGENT3\_NAME>  (23) 
EMOL6185419

>  <s_sd_BIOSOLVEIT.INFINISEE\_REAGENT3\_SMILES>  (23) 
O=C1Nc2c(cccc2)C(NC1)c3ccccc3

>  <s_sd_BIOSOLVEIT.INFINISEE\_SPACE>  (23) 
eXplore_7tr_2022-12

>  <s_vsw_compound_code>  (23) 
79427

>  <s_vsw_variant>  (23) 
79427-1

>  <r_epik_Charging_Adjusted_Penalty>  (23) 
0.0087634984339075902

>  <r_epik_Ionization_Penalty>  (23) 
0.0088000000000000005

>  <r_epik_Ionization_Penalty_Charging>  (23) 
0

>  <r_epik_Ionization_Penalty_Neutral>  (23) 
0.0088000000000000005

>  <r_epik_State_Penalty>  (23) 
0.0088000000000000005

>  <r_i_docking_score>  (23) 
-3.3427339736150201

>  <r_i_glide_ecoul>  (23) 
-5.2905635833740199

>  <r_i_glide_eff_state_penalty>  (23) 
0.0088000000000000005

>  <r_i_glide_einternal>  (23) 
2.5486073493957502

>  <r_i_glide_emodel>  (23) 
-39.070020243579002

>  <r_i_glide_energy>  (23) 
-33.265604019165004

>  <r_i_glide_erotb>  (23) 
0.80074468397813003

>  <r_i_glide_esite>  (23) 
0

>  <r_i_glide_evdw>  (23) 
-27.975040435791001

>  <r_i_glide_gscore>  (23) 
-3.35153397361502

>  <r_i_glide_hbond>  (23) 
-0.23687525164352599

>  <r_i_glide_ligand_efficiency>  (23) 
-0.10783012818113

>  <r_i_glide_ligand_efficiency_ln>  (23) 
-0.75388895354359897

>  <r_i_glide_ligand_efficiency_sa>  (23) 
-0.33873547802534598

>  <r_i_glide_lipo>  (23) 
-0.82498192752142196

>  <r_i_glide_metal>  (23) 
-0

>  <r_i_glide_rewards>  (23) 
-0.89808491913254296

>  <r_lp_Energy>  (23) 
42.848627999999998

>  <r_qp_ACxDN^.5/SA>  (23) 
0.020884099999999999

>  <r_qp_CIQPlogS>  (23) 
-4.0339999999999998

>  <r_qp_EA(eV)>  (23) 
0.313

>  <r_qp_FISA>  (23) 
143.375

>  <r_qp_FOSA>  (23) 
129.90799999999999

>  <r_qp_IP(eV)>  (23) 
8.8460000000000001

>  <r_qp_Jm>  (23) 
0.0033694163202849701

>  <r_qp_PISA>  (23) 
448.26299999999998

>  <r_qp_PSA>  (23) 
95.799000000000007

>  <r_qp_PercentHumanOralAbsorption>  (23) 
78.730000000000004

>  <r_qp_QPPCaco>  (23) 
107.937

>  <r_qp_QPPMDCK>  (23) 
49.340000000000003

>  <r_qp_QPlogBB>  (23) 
-0.88600000000000001

>  <r_qp_QPlogHERG>  (23) 
-7.5999999999999996

>  <r_qp_QPlogKhsa>  (23) 
0.187

>  <r_qp_QPlogKp>  (23) 
-4.069

>  <r_qp_QPlogPC16>  (23) 
15.269

>  <r_qp_QPlogPo/w>  (23) 
2.629

>  <r_qp_QPlogPoct>  (23) 
25.254999999999999

>  <r_qp_QPlogPw>  (23) 
17.120000000000001

>  <r_qp_QPlogS>  (23) 
-4.0220000000000002

>  <r_qp_QPpolrz>  (23) 
46.652999999999999

>  <r_qp_SASA>  (23) 
721.54600000000005

>  <r_qp_SAamideO>  (23) 
0

>  <r_qp_SAfluorine>  (23) 
0

>  <r_qp_WPSA>  (23) 
0

>  <r_qp_accptHB>  (23) 
8.6999999999999993

>  <r_qp_dip^2/V>  (23) 
0.028832799999999999

>  <r_qp_dipole>  (23) 
6.1429999999999998

>  <r_qp_donorHB>  (23) 
3

>  <r_qp_glob>  (23) 
0.80195970000000005

>  <r_qp_mol_MW>  (23) 
415.49099999999999

>  <r_qp_volume>  (23) 
1308.8119999999999

>  <r_sd_BIOSOLVEIT.INFINISEE\_FTREES\_SIMILARITY>  (23) 
0.91500000000000004

>  <r_sd_BIOSOLVEIT.LOGP>  (23) 
1.5353000000000001

>  <r_sd_BIOSOLVEIT.MOLECULAR\_WEIGHT>  (23) 
416.49799999999999

>  <r_sd_BIOSOLVEIT.TPSA>  (23) 
82.870000000000005

>  <i_epik_Tot_Q>  (23) 
0

>  <i_epik_Tot_abs_Q>  (23) 
0

>  <i_f3d_flags>  (23) 
0

>  <i_i_glide_confnum>  (23) 
8

>  <i_i_glide_lignum>  (23) 
1072

>  <i_i_glide_posenum>  (23) 
8

>  <i_i_glide_rotatable_bonds>  (23) 
8

>  <i_lp_mmshare_version>  (23) 
65135

>  <i_m_ct_format>  (23) 
2

>  <i_m_source_file_index>  (23) 
2483

>  <i_qp_#NandO>  (23) 
6

>  <i_qp_#acid>  (23) 
0

>  <i_qp_#amide>  (23) 
0

>  <i_qp_#amidine>  (23) 
0

>  <i_qp_#amine>  (23) 
1

>  <i_qp_#in34>  (23) 
0

>  <i_qp_#in56>  (23) 
18

>  <i_qp_#metab>  (23) 
8

>  <i_qp_#nonHatm>  (23) 
31

>  <i_qp_#noncon>  (23) 
2

>  <i_qp_#ringatoms>  (23) 
23

>  <i_qp_#rotor>  (23) 
6

>  <i_qp_#rtvFG>  (23) 
0

>  <i_qp_#stars>  (23) 
0

>  <i_qp_CNS>  (23) 
-1

>  <i_qp_HumanOralAbsorption>  (23) 
2

>  <i_qp_RuleOfFive>  (23) 
0

>  <i_qp_RuleOfThree>  (23) 
1

>  <i_sd_BIOSOLVEIT.INFINISEE\_RESULT\_RANK>  (23) 
28948

>  <i_sd_version>  (23) 
0

>  <b_lp_Chiralities_Consistent>  (23) 
1

>  <b_sd_chiral_flag>  (23) 
0

>  <acquisition_id>  (23) 
ATP-ACQ-0023

>  <canonical_id>  (23) 
ATP-HTVS-F8D25E752EF8

>  <compound_code>  (23) 
79427

>  <title>  (23) 
rxn512b____EMOL299981165____EMOL1939773____EMOL6185419

>  <variant>  (23) 
79427-1

>  <selection_arm>  (23) 
descriptor_diversity

>  <priority>  (23) 
P0

>  <wave>  (23) 
1

>  <source_file>  (23) 
运行/运行/ATP-VSW/ATP-VSW-DOCK_HTVS_1-003_lib/ATP-VSW-DOCK_HTVS_1-003_lib.mae

>  <canonical_smiles>  (23) 
O=C1CN(Cc2ccccc2C(=O)NCCO)[C@H](c2ccccc2)c2ccccc2N1

$$$$
ATP-ACQ-0024
     RDKit          3D

 70 74  0  0  0  0  0  0  0  0999 V2000
  201.3509  184.3144  158.5442 O   0  0  0  0  0  0  0  0  0  0  0  0
  200.2206  184.2136  158.0687 C   0  0  0  0  0  0  0  0  0  0  0  0
  199.2458  185.1248  158.2599 N   0  0  0  0  0  0  0  0  0  0  0  0
  199.3615  186.4685  158.7291 C   0  0  0  0  0  0  0  0  0  0  0  0
  198.1777  187.2032  159.0276 C   0  0  0  0  0  0  0  0  0  0  0  0
  196.9137  186.6037  158.8940 N   0  0  0  0  0  0  0  0  0  0  0  0
  196.5118  185.6805  159.9567 C   0  0  1  0  0  0  0  0  0  0  0  0
  195.6323  186.3671  160.9171 C   0  0  0  0  0  0  0  0  0  0  0  0
  194.9369  186.9042  161.6711 N   0  0  0  0  0  0  0  0  0  0  0  0
  195.8961  184.3724  159.4770 C   0  0  0  0  0  0  0  0  0  0  0  0
  196.7137  183.2409  159.2921 C   0  0  0  0  0  0  0  0  0  0  0  0
  196.1572  182.0346  158.8297 C   0  0  0  0  0  0  0  0  0  0  0  0
  194.7793  181.9422  158.5663 C   0  0  0  0  0  0  0  0  0  0  0  0
  193.9569  183.0623  158.7570 C   0  0  0  0  0  0  0  0  0  0  0  0
  194.5103  184.2656  159.2243 C   0  0  0  0  0  0  0  0  0  0  0  0
  196.2467  186.6358  157.5830 C   0  0  1  0  0  0  0  0  0  0  0  0
  196.6747  187.7789  156.6449 C   0  0  2  0  0  0  0  0  0  0  0  0
  198.2974  188.5838  159.3683 C   0  0  0  0  0  0  0  0  0  0  0  0
  199.5850  189.1761  159.4152 C   0  0  0  0  0  0  0  0  0  0  0  0
  200.6696  188.4324  159.1320 N   0  0  0  0  0  0  0  0  0  0  0  0
  200.6088  187.1294  158.7926 C   0  0  0  0  0  0  0  0  0  0  0  0
  199.7422  190.5405  159.7305 C   0  0  0  0  0  0  0  0  0  0  0  0
  198.6121  191.3240  160.0202 C   0  0  0  0  0  0  0  0  0  0  0  0
  197.3264  190.7539  159.9626 C   0  0  0  0  0  0  0  0  0  0  0  0
  197.1666  189.3902  159.6434 C   0  0  0  0  0  0  0  0  0  0  0  0
  199.8056  182.9727  157.3153 C   0  0  0  0  0  0  0  0  0  0  0  0
  198.6848  182.9794  156.4524 C   0  0  0  0  0  0  0  0  0  0  0  0
  198.3073  181.8172  155.7512 C   0  0  0  0  0  0  0  0  0  0  0  0
  199.0747  180.6432  155.8827 C   0  0  0  0  0  0  0  0  0  0  0  0
  200.2064  180.6291  156.7195 C   0  0  0  0  0  0  0  0  0  0  0  0
  200.5749  181.7907  157.4282 C   0  0  0  0  0  0  0  0  0  0  0  0
  197.0831  181.8367  154.8676 C   0  0  1  0  0  0  0  0  0  0  0  0
  197.4612  182.2491  153.4803 N   0  0  1  0  0  0  0  0  0  0  0  0
  196.4937  181.8696  152.4392 C   0  0  1  0  0  0  0  0  0  0  0  0
  196.8559  182.7113  151.2082 C   0  0  1  0  0  0  0  0  0  0  0  0
  197.6505  183.9026  151.7561 C   0  0  1  0  0  0  0  0  0  0  0  0
  197.6886  183.6994  153.2792 C   0  0  1  0  0  0  0  0  0  0  0  0
  198.3156  184.8473  157.9796 H   0  0  0  0  0  0  0  0  0  0  0  0
  197.4003  185.4213  160.5350 H   0  0  0  0  0  0  0  0  0  0  0  0
  197.7691  183.2769  159.5187 H   0  0  0  0  0  0  0  0  0  0  0  0
  196.7831  181.1635  158.6945 H   0  0  0  0  0  0  0  0  0  0  0  0
  194.3500  181.0114  158.2236 H   0  0  0  0  0  0  0  0  0  0  0  0
  192.9008  182.9905  158.5505 H   0  0  0  0  0  0  0  0  0  0  0  0
  193.8554  185.1037  159.3798 H   0  0  0  0  0  0  0  0  0  0  0  0
  196.3997  185.6857  157.0769 H   0  0  0  0  0  0  0  0  0  0  0  0
  195.1733  186.7247  157.7524 H   0  0  0  0  0  0  0  0  0  0  0  0
  196.0968  187.7357  155.7361 H   0  0  0  0  0  0  0  0  0  0  0  0
  197.7348  187.7370  156.3783 H   0  0  0  0  0  0  0  0  0  0  0  0
  196.4833  188.7452  157.1066 H   0  0  0  0  0  0  0  0  0  0  0  0
  201.5587  186.6940  158.5219 H   0  0  0  0  0  0  0  0  0  0  0  0
  200.7234  190.9858  159.7894 H   0  0  0  0  0  0  0  0  0  0  0  0
  198.7356  192.3605  160.3003 H   0  0  0  0  0  0  0  0  0  0  0  0
  196.4571  191.3577  160.1734 H   0  0  0  0  0  0  0  0  0  0  0  0
  196.1627  188.9897  159.5876 H   0  0  0  0  0  0  0  0  0  0  0  0
  198.0945  183.8710  156.3156 H   0  0  0  0  0  0  0  0  0  0  0  0
  198.8056  179.7457  155.3467 H   0  0  0  0  0  0  0  0  0  0  0  0
  200.7844  179.7203  156.8331 H   0  0  0  0  0  0  0  0  0  0  0  0
  201.4298  181.7471  158.0947 H   0  0  0  0  0  0  0  0  0  0  0  0
  196.6477  180.8393  154.8594 H   0  0  0  0  0  0  0  0  0  0  0  0
  196.3205  182.4921  155.2854 H   0  0  0  0  0  0  0  0  0  0  0  0
  196.4439  180.7930  152.2536 H   0  0  0  0  0  0  0  0  0  0  0  0
  195.5348  182.1918  152.8120 H   0  0  0  0  0  0  0  0  0  0  0  0
  197.4723  182.1248  150.5306 H   0  0  0  0  0  0  0  0  0  0  0  0
  195.9648  183.0169  150.6648 H   0  0  0  0  0  0  0  0  0  0  0  0
  198.6626  183.8869  151.3535 H   0  0  0  0  0  0  0  0  0  0  0  0
  197.2097  184.8630  151.4973 H   0  0  0  0  0  0  0  0  0  0  0  0
  196.8605  184.2585  153.7299 H   0  0  0  0  0  0  0  0  0  0  0  0
  198.6186  184.0555  153.7332 H   0  0  0  0  0  0  0  0  0  0  0  0
  198.3190  181.7879  153.2249 H   0  0  0  0  0  0  0  0  0  0  0  0
  201.5832  188.8826  159.1453 H   0  0  0  0  0  0  0  0  0  0  0  0
  1  2  2  0
  2  3  1  0
  2 26  1  0
  3  4  1  0
  3 38  1  0
  4  5  2  0
  4 21  1  0
  5  6  1  0
  5 18  1  0
  6  7  1  0
  6 16  1  0
  7  8  1  0
  7 10  1  0
  7 39  1  1
  8  9  3  0
 10 11  2  0
 10 15  1  0
 11 12  1  0
 11 40  1  0
 12 13  2  0
 12 41  1  0
 13 14  1  0
 13 42  1  0
 14 15  2  0
 14 43  1  0
 15 44  1  0
 16 17  1  0
 16 45  1  6
 16 46  1  0
 17 47  1  6
 17 48  1  0
 17 49  1  0
 18 19  1  0
 18 25  2  0
 19 20  1  0
 19 22  2  0
 20 21  2  0
 20 70  1  0
 21 50  1  0
 22 23  1  0
 22 51  1  0
 23 24  2  0
 23 52  1  0
 24 25  1  0
 24 53  1  0
 25 54  1  0
 26 27  2  0
 26 31  1  0
 27 28  1  0
 27 55  1  0
 28 29  2  0
 28 32  1  0
 29 30  1  0
 29 56  1  0
 30 31  2  0
 30 57  1  0
 31 58  1  0
 32 33  1  0
 32 59  1  6
 32 60  1  0
 33 34  1  0
 33 37  1  0
 33 69  1  6
 34 35  1  0
 34 61  1  6
 34 62  1  0
 35 36  1  0
 35 63  1  6
 35 64  1  0
 36 37  1  0
 36 65  1  6
 36 66  1  0
 37 67  1  1
 37 68  1  0
M  CHG  2  20   1  33   1
M  END
>  <s_epik_cmdline>  (24) 
J2VwaWtfcHl0aG9uJywgJy1waCcsICc3LjAwMDAwMCcsICctcGh0JywgJzIuMDAwMDAwJywgJy1tcycsICcxNicsICctdG4nLCAnOCcsICctbWEnLCAnMjAwJywgJy1pbWFlJywgJzxpbmZpbGUubWFlPicsICctb21hZScsICc8b3V0ZmlsZS5tYWU+Jw==

>  <s_epik_input>  (24) 
W0NIMl0xW0NIMl1bQ0gyXVtDSDJdTjFbQ0gyXWMoW2NIXVtjSF1bY0hdMilbY0hdYzJDKD1PKVtOSF1jKFtjSF1uYyhjMzQpW2NIXVtjSF1bY0hdW2NIXTQpYzNOKFtDSDJdW0NIM10pW0NAQEhdKEMjTiljNVtjSF1bY0hdW2NIXVtjSF1bY0hdNQ==

>  <s_i_glide_gridfile>  (24) 
ATP-Grid

>  <s_lp_Force_Field>  (24) 
OPLS_2005

>  <s_lp_Variant>  (24) 
rxn502b____EMOL5849923____EMOL30488121____EMOL49839592-1

>  <s_lp_label>  (24) 
2981_sdstereoexpander_1_neutralizer_1_epik_1_stereoizer_1

>  <s_m_source_file>  (24) 
ATP-VSW-LIGPREP-001-in.maegz

>  <s_sd_BIOSOLVEIT.INFINISEE\_QUERY\_NAME>  (24) 
Ref-Lig

>  <s_sd_BIOSOLVEIT.INFINISEE\_QUERY\_SMILES>  (24) 
S(c1nc2c(cc1C[NH2+]Cc3ccc(cc3)C[NH+](C)C)cccc2)Cc4ccccc4

>  <s_sd_BIOSOLVEIT.INFINISEE\_REACTION\_NAME>  (24) 
rxn502b

>  <s_sd_BIOSOLVEIT.INFINISEE\_REAGENT1\_NAME>  (24) 
EMOL5849923

>  <s_sd_BIOSOLVEIT.INFINISEE\_REAGENT1\_SMILES>  (24) 
O=C(O)c1cc(ccc1)CN2CCCC2

>  <s_sd_BIOSOLVEIT.INFINISEE\_REAGENT2\_NAME>  (24) 
EMOL30488121

>  <s_sd_BIOSOLVEIT.INFINISEE\_REAGENT2\_SMILES>  (24) 
Brc1c(N)cnc2c1cccc2

>  <s_sd_BIOSOLVEIT.INFINISEE\_REAGENT3\_NAME>  (24) 
EMOL49839592

>  <s_sd_BIOSOLVEIT.INFINISEE\_REAGENT3\_SMILES>  (24) 
N#CC(NCC)c1ccccc1

>  <s_sd_BIOSOLVEIT.INFINISEE\_SPACE>  (24) 
eXplore_7tr_2022-12

>  <s_vsw_compound_code>  (24) 
95361

>  <s_vsw_variant>  (24) 
95361-1

>  <r_epik_Charging_Adjusted_Penalty>  (24) 
0.26277358272881901

>  <r_epik_Ionization_Penalty>  (24) 
0.13120000000000001

>  <r_epik_Ionization_Penalty_Charging>  (24) 
0.13109999999999999

>  <r_epik_Ionization_Penalty_Neutral>  (24) 
0.0001

>  <r_epik_State_Penalty>  (24) 
0.13170000000000001

>  <r_i_docking_score>  (24) 
-4.5312106913309202

>  <r_i_glide_ecoul>  (24) 
-8.0760135650634801

>  <r_i_glide_eff_state_penalty>  (24) 
0.13170000000000001

>  <r_i_glide_einternal>  (24) 
4.9983291625976598

>  <r_i_glide_emodel>  (24) 
-63.718082976767597

>  <r_i_glide_energy>  (24) 
-46.666318893432603

>  <r_i_glide_erotb>  (24) 
0.67386511502589597

>  <r_i_glide_esite>  (24) 
-0.028944793162924001

>  <r_i_glide_evdw>  (24) 
-38.590305328369098

>  <r_i_glide_gscore>  (24) 
-4.6629106913309197

>  <r_i_glide_hbond>  (24) 
0

>  <r_i_glide_ligand_efficiency>  (24) 
-0.12246515381975499

>  <r_i_glide_ligand_efficiency_ln>  (24) 
-0.98271337229953104

>  <r_i_glide_ligand_efficiency_sa>  (24) 
-0.40808106113218701

>  <r_i_glide_lipo>  (24) 
-1.24684592712097

>  <r_i_glide_metal>  (24) 
-0

>  <r_i_glide_rewards>  (24) 
-0.92006778489495

>  <r_lp_Energy>  (24) 
62.135958000000002

>  <r_qp_ACxDN^.5/SA>  (24) 
0.010175399999999999

>  <r_qp_CIQPlogS>  (24) 
-7.266

>  <r_qp_EA(eV)>  (24) 
1.117

>  <r_qp_FISA>  (24) 
87.930999999999997

>  <r_qp_FOSA>  (24) 
284.27600000000001

>  <r_qp_IP(eV)>  (24) 
8.7590000000000003

>  <r_qp_Jm>  (24) 
0.00089492594023360395

>  <r_qp_PISA>  (24) 
414.00299999999999

>  <r_qp_PSA>  (24) 
71.915999999999997

>  <r_qp_PercentHumanOralAbsorption>  (24) 
100

>  <r_qp_QPPCaco>  (24) 
362.20400000000001

>  <r_qp_QPPMDCK>  (24) 
182.60400000000001

>  <r_qp_QPlogBB>  (24) 
-0.45400000000000001

>  <r_qp_QPlogHERG>  (24) 
-7.1619999999999999

>  <r_qp_QPlogKhsa>  (24) 
0.81200000000000006

>  <r_qp_QPlogKp>  (24) 
-2.8799999999999999

>  <r_qp_QPlogPC16>  (24) 
16.167000000000002

>  <r_qp_QPlogPo/w>  (24) 
4.923

>  <r_qp_QPlogPoct>  (24) 
24.23

>  <r_qp_QPlogPw>  (24) 
12.385

>  <r_qp_QPlogS>  (24) 
-5.8579999999999997

>  <r_qp_QPpolrz>  (24) 
53.503

>  <r_qp_SASA>  (24) 
786.21000000000004

>  <r_qp_SAamideO>  (24) 
0

>  <r_qp_SAfluorine>  (24) 
0

>  <r_qp_WPSA>  (24) 
0

>  <r_qp_accptHB>  (24) 
8

>  <r_qp_dip^2/V>  (24) 
0.037852400000000001

>  <r_qp_dipole>  (24) 
7.6260000000000003

>  <r_qp_donorHB>  (24) 
1

>  <r_qp_glob>  (24) 
0.81898720000000003

>  <r_qp_mol_MW>  (24) 
489.61900000000003

>  <r_qp_volume>  (24) 
1536.299

>  <r_sd_BIOSOLVEIT.INFINISEE\_FTREES\_SIMILARITY>  (24) 
0.90300000000000002

>  <r_sd_BIOSOLVEIT.LOGP>  (24) 
4.7569800000000004

>  <r_sd_BIOSOLVEIT.MOLECULAR\_WEIGHT>  (24) 
490.62799999999999

>  <r_sd_BIOSOLVEIT.TPSA>  (24) 
73.459999999999994

>  <i_epik_Tot_Q>  (24) 
2

>  <i_epik_Tot_abs_Q>  (24) 
2

>  <i_f3d_flags>  (24) 
0

>  <i_i_glide_confnum>  (24) 
7

>  <i_i_glide_lignum>  (24) 
1411

>  <i_i_glide_posenum>  (24) 
16

>  <i_i_glide_rotatable_bonds>  (24) 
9

>  <i_lp_mmshare_version>  (24) 
65135

>  <i_m_ct_format>  (24) 
2

>  <i_m_source_file_index>  (24) 
2981

>  <i_qp_#NandO>  (24) 
6

>  <i_qp_#acid>  (24) 
0

>  <i_qp_#amide>  (24) 
0

>  <i_qp_#amidine>  (24) 
0

>  <i_qp_#amine>  (24) 
1

>  <i_qp_#in34>  (24) 
0

>  <i_qp_#in56>  (24) 
27

>  <i_qp_#metab>  (24) 
6

>  <i_qp_#nonHatm>  (24) 
37

>  <i_qp_#noncon>  (24) 
4

>  <i_qp_#ringatoms>  (24) 
27

>  <i_qp_#rotor>  (24) 
9

>  <i_qp_#rtvFG>  (24) 
0

>  <i_qp_#stars>  (24) 
0

>  <i_qp_CNS>  (24) 
1

>  <i_qp_HumanOralAbsorption>  (24) 
3

>  <i_qp_RuleOfFive>  (24) 
0

>  <i_qp_RuleOfThree>  (24) 
1

>  <i_sd_BIOSOLVEIT.INFINISEE\_RESULT\_RANK>  (24) 
83705

>  <i_sd_version>  (24) 
0

>  <b_lp_Chiralities_Consistent>  (24) 
1

>  <b_sd_chiral_flag>  (24) 
0

>  <acquisition_id>  (24) 
ATP-ACQ-0024

>  <canonical_id>  (24) 
ATP-HTVS-7EF96EA99BCF

>  <compound_code>  (24) 
95361

>  <title>  (24) 
rxn502b____EMOL5849923____EMOL30488121____EMOL49839592

>  <variant>  (24) 
95361-1

>  <selection_arm>  (24) 
score_calibration

>  <priority>  (24) 
P0

>  <wave>  (24) 
1

>  <source_file>  (24) 
运行/运行/ATP-VSW/ATP-VSW-DOCK_HTVS_1-001_lib/ATP-VSW-DOCK_HTVS_1-001_lib

>  <canonical_smiles>  (24) 
CCN(c1c(NC(=O)c2cccc(C[NH+]3CCCC3)c2)c[nH+]c2ccccc12)[C@@H](C#N)c1ccccc1

$$$$
