ATP-ACQ2-0001
     RDKit          3D

 60 62  0  0  0  0  0  0  0  0999 V2000
  197.0565  185.5114  159.7188 S   0  0  0  0  0  0  0  0  0  0  0  0
  195.3677  185.0545  159.8569 C   0  0  0  0  0  0  0  0  0  0  0  0
  195.1177  183.8031  159.4738 N   0  0  0  0  0  0  0  0  0  0  0  0
  196.2717  183.1359  159.0632 C   0  0  0  0  0  0  0  0  0  0  0  0
  197.4062  183.9057  159.1642 C   0  0  0  0  0  0  0  0  0  0  0  0
  196.1835  181.7389  158.5373 C   0  0  0  0  0  0  0  0  0  0  0  0
  195.9933  181.7409  157.0760 N   0  0  0  0  0  0  0  0  0  0  0  0
  197.1678  182.1842  156.2975 C   0  0  0  0  0  0  0  0  0  0  0  0
  197.1558  181.6184  154.8833 C   0  0  0  0  0  0  0  0  0  0  0  0
  197.4963  180.2648  154.5907 C   0  0  0  0  0  0  0  0  0  0  0  0
  197.3991  179.8192  153.2521 C   0  0  0  0  0  0  0  0  0  0  0  0
  197.0489  180.7013  152.2133 C   0  0  0  0  0  0  0  0  0  0  0  0
  197.0132  180.2568  150.9316 F   0  0  0  0  0  0  0  0  0  0  0  0
  196.7449  182.0397  152.5020 C   0  0  0  0  0  0  0  0  0  0  0  0
  196.7835  182.4897  153.8328 C   0  0  0  0  0  0  0  0  0  0  0  0
  197.9459  179.2639  155.6693 C   0  0  0  0  0  0  0  0  0  0  0  0
  199.4262  179.0545  155.7146 N   0  0  1  0  0  0  0  0  0  0  0  0
  199.8796  178.4890  157.0175 C   0  0  0  0  0  0  0  0  0  0  0  0
  201.4002  178.5668  157.2400 C   0  0  0  0  0  0  0  0  0  0  0  0
  199.9345  178.2635  154.5620 C   0  0  0  0  0  0  0  0  0  0  0  0
  194.3159  185.9878  160.3475 C   0  0  0  0  0  0  0  0  0  0  0  0
  194.5599  186.2362  161.7269 O   0  0  0  0  0  0  0  0  0  0  0  0
  193.7166  187.1335  162.3199 C   0  0  0  0  0  0  0  0  0  0  0  0
  192.6935  186.6927  163.1904 C   0  0  0  0  0  0  0  0  0  0  0  0
  191.8851  187.6378  163.8581 C   0  0  0  0  0  0  0  0  0  0  0  0
  192.0528  189.0235  163.6531 C   0  0  0  0  0  0  0  0  0  0  0  0
  191.2413  189.8994  164.3259 O   0  0  0  0  0  0  0  0  0  0  0  0
  191.3965  191.2913  164.0759 C   0  0  0  0  0  0  0  0  0  0  0  0
  193.0751  189.4509  162.7597 C   0  0  0  0  0  0  0  0  0  0  0  0
  193.8983  188.5059  162.1302 C   0  0  0  0  0  0  0  0  0  0  0  0
  195.8351  180.7576  156.8909 H   0  0  0  0  0  0  0  0  0  0  0  0
  198.4163  183.6377  158.9041 H   0  0  0  0  0  0  0  0  0  0  0  0
  197.0808  181.1697  158.7768 H   0  0  0  0  0  0  0  0  0  0  0  0
  195.3647  181.1898  158.9987 H   0  0  0  0  0  0  0  0  0  0  0  0
  197.1682  183.2793  156.2695 H   0  0  0  0  0  0  0  0  0  0  0  0
  198.1079  181.8943  156.7720 H   0  0  0  0  0  0  0  0  0  0  0  0
  197.6036  178.7922  152.9934 H   0  0  0  0  0  0  0  0  0  0  0  0
  196.4545  182.7171  151.7085 H   0  0  0  0  0  0  0  0  0  0  0  0
  196.5136  183.5137  154.0403 H   0  0  0  0  0  0  0  0  0  0  0  0
  197.6076  179.6185  156.6388 H   0  0  0  0  0  0  0  0  0  0  0  0
  197.4335  178.3096  155.5287 H   0  0  0  0  0  0  0  0  0  0  0  0
  199.4079  179.0417  157.8285 H   0  0  0  0  0  0  0  0  0  0  0  0
  199.5502  177.4533  157.1081 H   0  0  0  0  0  0  0  0  0  0  0  0
  201.6625  178.1337  158.2088 H   0  0  0  0  0  0  0  0  0  0  0  0
  201.7395  179.6021  157.2393 H   0  0  0  0  0  0  0  0  0  0  0  0
  201.9663  178.0162  156.4880 H   0  0  0  0  0  0  0  0  0  0  0  0
  199.4762  177.2705  154.5681 H   0  0  0  0  0  0  0  0  0  0  0  0
  201.0198  178.1363  154.5842 H   0  0  0  0  0  0  0  0  0  0  0  0
  199.7098  178.7439  153.6076 H   0  0  0  0  0  0  0  0  0  0  0  0
  194.3478  186.9057  159.7625 H   0  0  0  0  0  0  0  0  0  0  0  0
  193.3318  185.5395  160.2323 H   0  0  0  0  0  0  0  0  0  0  0  0
  192.5523  185.6395  163.3696 H   0  0  0  0  0  0  0  0  0  0  0  0
  191.1450  187.3101  164.5584 H   0  0  0  0  0  0  0  0  0  0  0  0
  190.7046  191.8925  164.6615 H   0  0  0  0  0  0  0  0  0  0  0  0
  191.2101  191.5093  163.0283 H   0  0  0  0  0  0  0  0  0  0  0  0
  192.3919  191.6141  164.3595 H   0  0  0  0  0  0  0  0  0  0  0  0
  193.2746  190.5031  162.5329 H   0  0  0  0  0  0  0  0  0  0  0  0
  194.6676  188.8431  161.4421 H   0  0  0  0  0  0  0  0  0  0  0  0
  199.8268  179.9766  155.6639 H   0  0  0  0  0  0  0  0  0  0  0  0
  195.1609  182.2429  156.7904 H   0  0  0  0  0  0  0  0  0  0  0  0
  1  2  1  0
  1  5  1  0
  2  3  2  0
  2 21  1  0
  3  4  1  0
  4  5  2  0
  4  6  1  0
  5 32  1  0
  6  7  1  0
  6 33  1  0
  6 34  1  0
  7  8  1  0
  7 31  1  0
  7 60  1  0
  8  9  1  0
  8 35  1  0
  8 36  1  0
  9 10  2  0
  9 15  1  0
 10 11  1  0
 10 16  1  0
 11 12  2  0
 11 37  1  0
 12 13  1  0
 12 14  1  0
 14 15  2  0
 14 38  1  0
 15 39  1  0
 16 17  1  0
 16 40  1  0
 16 41  1  0
 17 18  1  0
 17 20  1  0
 17 59  1  6
 18 19  1  0
 18 42  1  0
 18 43  1  0
 19 44  1  0
 19 45  1  0
 19 46  1  0
 20 47  1  0
 20 48  1  0
 20 49  1  0
 21 22  1  0
 21 50  1  0
 21 51  1  0
 22 23  1  0
 23 24  1  0
 23 30  2  0
 24 25  2  0
 24 52  1  0
 25 26  1  0
 25 53  1  0
 26 27  1  0
 26 29  2  0
 27 28  1  0
 28 54  1  0
 28 55  1  0
 28 56  1  0
 29 30  1  0
 29 57  1  0
 30 58  1  0
M  CHG  2   7   1  17   1
M  END
>  <s_epik_cmdline>  (1) 
J2VwaWtfcHl0aG9uJywgJy1waCcsICc3LjAwMDAwMCcsICctcGh0JywgJzIuMDAwMDAwJywgJy1tcycsICcxNicsICctdG4nLCAnOCcsICctbWEnLCAnMjAwJywgJy1pbWFlJywgJzxpbmZpbGUubWFlPicsICctb21hZScsICc8b3V0ZmlsZS5tYWU+Jw==

>  <s_epik_input>  (1) 
W0NIM11PYyhbY0hdW2NIXTEpW2NIXVtjSF1jMU9bQ0gyXWMyc1tjSF1jKG4yKVtDSDJdW05IXVtDSDJdYzNjKFtjSF1jKEYpW2NIXVtjSF0zKVtDSDJdTihbQ0gzXSlbQ0gyXVtDSDNd

>  <s_i_glide_gridfile>  (1) 
ATP-Grid

>  <s_lp_Force_Field>  (1) 
OPLS_2005

>  <s_lp_Variant>  (1) 
m_270004bbb____24792670____7548988-1

>  <s_lp_label>  (1) 
1379_sdstereoexpander_1_neutralizer_1_epik_1_stereoizer_1

>  <s_m_source_file>  (1) 
ATP-VSW-LIGPREP-002-in.maegz

>  <s_sd_BIOSOLVEIT.INFINISEE\_QUERY\_NAME>  (1) 
Ref-Lig

>  <s_sd_BIOSOLVEIT.INFINISEE\_QUERY\_SMILES>  (1) 
S(c1nc2c(cc1C[NH2+]Cc3ccc(cc3)C[NH+](C)C)cccc2)Cc4ccccc4

>  <s_sd_BIOSOLVEIT.INFINISEE\_REACTION\_NAME>  (1) 
m_270004bbb

>  <s_sd_BIOSOLVEIT.INFINISEE\_REAGENT1\_SMILES>  (1) 
[R1*]NCc1c(cc(F)cc1)CN(CC)C

>  <s_sd_BIOSOLVEIT.INFINISEE\_REAGENT2\_SMILES>  (1) 
[R1*]CC=1N=C(SC1)COc2ccc(OC)cc2

>  <s_sd_BIOSOLVEIT.INFINISEE\_SPACE>  (1) 
REALSpace_44bn_2023-08

>  <s_vsw_compound_code>  (1) 
44098

>  <s_vsw_variant>  (1) 
44098-1

>  <r_epik_Charging_Adjusted_Penalty>  (1) 
0.47514642973629001

>  <r_epik_Ionization_Penalty>  (1) 
0.23899999999999999

>  <r_epik_Ionization_Penalty_Charging>  (1) 
0.23899999999999999

>  <r_epik_Ionization_Penalty_Neutral>  (1) 
0

>  <r_epik_State_Penalty>  (1) 
0.23619999999999999

>  <r_i_docking_score>  (1) 
-6.7289102870080901

>  <r_i_glide_ecoul>  (1) 
-18.263252258300799

>  <r_i_glide_eff_state_penalty>  (1) 
0.23619999999999999

>  <r_i_glide_einternal>  (1) 
12.567302703857401

>  <r_i_glide_emodel>  (1) 
-91.086170915954398

>  <r_i_glide_energy>  (1) 
-58.038726806640597

>  <r_i_glide_erotb>  (1) 
0.96117231633538802

>  <r_i_glide_esite>  (1) 
-0.153333407566351

>  <r_i_glide_evdw>  (1) 
-39.775474548339801

>  <r_i_glide_gscore>  (1) 
-6.9651102870080903

>  <r_i_glide_hbond>  (1) 
-0.36320661323952602

>  <r_i_glide_ligand_efficiency>  (1) 
-0.22429700956693599

>  <r_i_glide_ligand_efficiency_ln>  (1) 
-1.5288817345580701

>  <r_i_glide_ligand_efficiency_sa>  (1) 
-0.69694295832448105

>  <r_i_glide_lipo>  (1) 
-1.6274739775753

>  <r_i_glide_metal>  (1) 
-0

>  <r_i_glide_rewards>  (1) 
-1.0540070388001901

>  <r_lp_Energy>  (1) 
23.150915999999999

>  <r_lp_tautomer_probability>  (1) 
1

>  <r_qp_ACxDN^.5/SA>  (1) 
0.0085348000000000004

>  <r_qp_CIQPlogS>  (1) 
-4.2679999999999998

>  <r_qp_EA(eV)>  (1) 
0.81799999999999995

>  <r_qp_FISA>  (1) 
18.178000000000001

>  <r_qp_FOSA>  (1) 
371.44499999999999

>  <r_qp_IP(eV)>  (1) 
8.6750000000000007

>  <r_qp_Jm>  (1) 
0.0071453683930328901

>  <r_qp_PISA>  (1) 
283.39999999999998

>  <r_qp_PSA>  (1) 
45.182000000000002

>  <r_qp_PercentHumanOralAbsorption>  (1) 
100

>  <r_qp_QPPCaco>  (1) 
414.303

>  <r_qp_QPPMDCK>  (1) 
713.90499999999997

>  <r_qp_QPlogBB>  (1) 
0.71999999999999997

>  <r_qp_QPlogHERG>  (1) 
-7.774

>  <r_qp_QPlogKhsa>  (1) 
0.60699999999999998

>  <r_qp_QPlogKp>  (1) 
-3.9249999999999998

>  <r_qp_QPlogPC16>  (1) 
13.486000000000001

>  <r_qp_QPlogPo/w>  (1) 
4.7089999999999996

>  <r_qp_QPlogPoct>  (1) 
19.518000000000001

>  <r_qp_QPlogPw>  (1) 
9.0749999999999993

>  <r_qp_QPlogS>  (1) 
-3.8540000000000001

>  <r_qp_QPpolrz>  (1) 
44.761000000000003

>  <r_qp_SASA>  (1) 
761.58900000000006

>  <r_qp_SAamideO>  (1) 
0

>  <r_qp_SAfluorine>  (1) 
46.972000000000001

>  <r_qp_WPSA>  (1) 
88.566000000000003

>  <r_qp_accptHB>  (1) 
6.5

>  <r_qp_dip^2/V>  (1) 
0.0054665

>  <r_qp_dipole>  (1) 
2.7480000000000002

>  <r_qp_donorHB>  (1) 
1

>  <r_qp_glob>  (1) 
0.78752089999999997

>  <r_qp_mol_MW>  (1) 
429.55099999999999

>  <r_qp_volume>  (1) 
1381.105

>  <r_sd_BIOSOLVEIT.INFINISEE\_FTREES\_SIMILARITY>  (1) 
0.90900000000000003

>  <r_sd_BIOSOLVEIT.LOGP>  (1) 
2.1680000000000001

>  <r_sd_BIOSOLVEIT.MOLECULAR\_WEIGHT>  (1) 
431.572

>  <r_sd_BIOSOLVEIT.TPSA>  (1) 
52.399999999999999

>  <i_epik_Tot_Q>  (1) 
2

>  <i_epik_Tot_abs_Q>  (1) 
2

>  <i_f3d_flags>  (1) 
0

>  <i_i_glide_confnum>  (1) 
8

>  <i_i_glide_lignum>  (1) 
481

>  <i_i_glide_posenum>  (1) 
7

>  <i_i_glide_rotatable_bonds>  (1) 
11

>  <i_lp_mmshare_version>  (1) 
65135

>  <i_m_ct_format>  (1) 
2

>  <i_m_source_file_index>  (1) 
1379

>  <i_qp_#NandO>  (1) 
5

>  <i_qp_#acid>  (1) 
0

>  <i_qp_#amide>  (1) 
0

>  <i_qp_#amidine>  (1) 
0

>  <i_qp_#amine>  (1) 
2

>  <i_qp_#in34>  (1) 
0

>  <i_qp_#in56>  (1) 
17

>  <i_qp_#metab>  (1) 
9

>  <i_qp_#nonHatm>  (1) 
30

>  <i_qp_#noncon>  (1) 
0

>  <i_qp_#ringatoms>  (1) 
17

>  <i_qp_#rotor>  (1) 
11

>  <i_qp_#rtvFG>  (1) 
0

>  <i_qp_#stars>  (1) 
1

>  <i_qp_CNS>  (1) 
2

>  <i_qp_HumanOralAbsorption>  (1) 
3

>  <i_qp_RuleOfFive>  (1) 
0

>  <i_qp_RuleOfThree>  (1) 
1

>  <i_sd_BIOSOLVEIT.INFINISEE\_REAGENT1\_NAME>  (1) 
24792670

>  <i_sd_BIOSOLVEIT.INFINISEE\_REAGENT2\_NAME>  (1) 
7548988

>  <i_sd_BIOSOLVEIT.INFINISEE\_RESULT\_RANK>  (1) 
51332

>  <i_sd_version>  (1) 
0

>  <b_lp_Chiralities_Consistent>  (1) 
1

>  <b_sd_chiral_flag>  (1) 
0

>  <canonical_id>  (1) 
ATP-HTVS-66618B00A972

>  <compound_code>  (1) 
44098

>  <title>  (1) 
m_270004bbb____24792670____7548988

>  <variant>  (1) 
44098-1

>  <source_file>  (1) 
运行/运行/ATP-VSW/ATP-VSW-DOCK_HTVS_1-002_lib.maegz

>  <canonical_smiles>  (1) 
CC[N@@H+](C)Cc1cc(F)ccc1C[NH2+]Cc1csc(COc2ccc(OC)cc2)n1

>  <scaffold>  (1) 
c1ccc(C[NH2+]Cc2csc(COc3ccccc3)n2)cc1

>  <molecular_formula>  (1) 
C23H30FN3O2S+2

>  <acquisition_id_v2>  (1) 
ATP-ACQ2-0001

>  <selection_arm_v2>  (1) 
exploitation

>  <priority_v2>  (1) 
P0

$$$$
ATP-ACQ2-0002
     RDKit          3D

 59 61  0  0  0  0  0  0  0  0999 V2000
  198.4741  185.5134  152.5957 Cl  0  0  0  0  0  0  0  0  0  0  0  0
  197.9734  185.0522  154.1862 C   0  0  0  0  0  0  0  0  0  0  0  0
  197.5752  183.7123  154.4362 C   0  0  0  0  0  0  0  0  0  0  0  0
  197.1972  183.3358  155.7316 C   0  0  0  0  0  0  0  0  0  0  0  0
  197.1489  184.2617  156.7887 C   0  0  0  0  0  0  0  0  0  0  0  0
  196.7402  183.8986  158.1231 N   0  0  0  0  0  0  0  0  0  0  0  0
  197.5187  184.0650  159.2132 C   0  0  0  0  0  0  0  0  0  0  0  0
  197.1064  183.8332  160.3599 O   0  0  0  0  0  0  0  0  0  0  0  0
  198.9111  184.5138  159.0758 C   0  0  0  0  0  0  0  0  0  0  0  0
  199.2517  186.2205  159.1877 S   0  0  0  0  0  0  0  0  0  0  0  0
  200.9291  185.9316  158.8340 C   0  0  0  0  0  0  0  0  0  0  0  0
  201.9782  187.2748  158.5838 Cl  0  0  0  0  0  0  0  0  0  0  0  0
  201.2308  184.6044  158.7888 C   0  0  0  0  0  0  0  0  0  0  0  0
  202.5370  184.0801  158.6179 N   0  0  0  0  0  0  0  0  0  0  0  0
  202.8204  182.6966  158.2849 C   0  0  0  0  0  0  0  0  0  0  0  0
  202.0114  182.1503  157.1225 C   0  0  0  0  0  0  0  0  0  0  0  0
  201.1691  181.0389  157.3258 C   0  0  0  0  0  0  0  0  0  0  0  0
  200.4235  180.4794  156.2771 C   0  0  0  0  0  0  0  0  0  0  0  0
  200.4721  181.0979  154.9975 C   0  0  0  0  0  0  0  0  0  0  0  0
  201.2715  182.2422  154.7963 C   0  0  0  0  0  0  0  0  0  0  0  0
  202.0467  182.7636  155.8497 C   0  0  0  0  0  0  0  0  0  0  0  0
  199.5556  179.2478  156.5131 C   0  0  0  0  0  0  0  0  0  0  0  0
  200.3660  178.0109  156.6895 N   0  0  0  0  0  0  0  0  0  0  0  0
  199.6429  176.7820  156.2850 C   0  0  0  0  0  0  0  0  0  0  0  0
  200.9440  177.8536  158.0443 C   0  0  0  0  0  0  0  0  0  0  0  0
  200.0778  183.7802  158.9570 C   0  0  0  0  0  0  0  0  0  0  0  0
  195.3792  183.3525  158.2673 C   0  0  0  0  0  0  0  0  0  0  0  0
  195.3121  181.8247  158.1204 C   0  0  0  0  0  0  0  0  0  0  0  0
  193.9511  181.3639  157.9085 N   0  0  0  0  0  0  0  0  0  0  0  0
  197.4818  185.6252  156.5063 C   0  0  0  0  0  0  0  0  0  0  0  0
  197.9397  185.9899  155.2182 C   0  0  0  0  0  0  0  0  0  0  0  0
  194.0271  180.3699  157.7530 H   0  0  0  0  0  0  0  0  0  0  0  0
  193.5775  181.8197  157.0825 H   0  0  0  0  0  0  0  0  0  0  0  0
  197.5658  182.9926  153.6343 H   0  0  0  0  0  0  0  0  0  0  0  0
  196.9333  182.2822  155.8581 H   0  0  0  0  0  0  0  0  0  0  0  0
  203.3136  184.7155  158.6697 H   0  0  0  0  0  0  0  0  0  0  0  0
  203.8819  182.5992  158.0468 H   0  0  0  0  0  0  0  0  0  0  0  0
  202.6554  182.0848  159.1758 H   0  0  0  0  0  0  0  0  0  0  0  0
  201.1069  180.6415  158.3322 H   0  0  0  0  0  0  0  0  0  0  0  0
  199.8832  180.7100  154.1813 H   0  0  0  0  0  0  0  0  0  0  0  0
  201.2805  182.7312  153.8329 H   0  0  0  0  0  0  0  0  0  0  0  0
  202.6520  183.6472  155.6999 H   0  0  0  0  0  0  0  0  0  0  0  0
  198.9025  179.4202  157.3691 H   0  0  0  0  0  0  0  0  0  0  0  0
  198.8901  179.1292  155.6608 H   0  0  0  0  0  0  0  0  0  0  0  0
  198.7652  176.6343  156.9073 H   0  0  0  0  0  0  0  0  0  0  0  0
  200.2886  175.9106  156.4009 H   0  0  0  0  0  0  0  0  0  0  0  0
  199.3286  176.8173  155.2403 H   0  0  0  0  0  0  0  0  0  0  0  0
  200.1484  177.8006  158.7933 H   0  0  0  0  0  0  0  0  0  0  0  0
  201.6301  178.6488  158.3074 H   0  0  0  0  0  0  0  0  0  0  0  0
  201.5180  176.9303  158.1090 H   0  0  0  0  0  0  0  0  0  0  0  0
  200.0959  182.7103  158.9795 H   0  0  0  0  0  0  0  0  0  0  0  0
  194.9394  183.6113  159.2378 H   0  0  0  0  0  0  0  0  0  0  0  0
  194.7189  183.8393  157.5560 H   0  0  0  0  0  0  0  0  0  0  0  0
  195.8605  181.4484  157.2587 H   0  0  0  0  0  0  0  0  0  0  0  0
  195.7462  181.3200  158.9992 H   0  0  0  0  0  0  0  0  0  0  0  0
  197.3773  186.3866  157.2600 H   0  0  0  0  0  0  0  0  0  0  0  0
  198.2402  187.0129  155.0424 H   0  0  0  0  0  0  0  0  0  0  0  0
  193.3484  181.5588  158.7201 H   0  0  0  0  0  0  0  0  0  0  0  0
  201.1462  178.0907  156.0471 H   0  0  0  0  0  0  0  0  0  0  0  0
  1  2  1  0
  2  3  1  0
  2 31  2  0
  3  4  2  0
  3 34  1  0
  4  5  1  0
  4 35  1  0
  5  6  1  0
  5 30  2  0
  6  7  1  0
  6 27  1  0
  7  8  2  0
  7  9  1  0
  9 10  1  0
  9 26  2  0
 10 11  1  0
 11 12  1  0
 11 13  2  0
 13 14  1  0
 13 26  1  0
 14 15  1  0
 14 36  1  0
 15 16  1  0
 15 37  1  0
 15 38  1  0
 16 17  2  0
 16 21  1  0
 17 18  1  0
 17 39  1  0
 18 19  2  0
 18 22  1  0
 19 20  1  0
 19 40  1  0
 20 21  2  0
 20 41  1  0
 21 42  1  0
 22 23  1  0
 22 43  1  0
 22 44  1  0
 23 24  1  0
 23 25  1  0
 23 59  1  0
 24 45  1  0
 24 46  1  0
 24 47  1  0
 25 48  1  0
 25 49  1  0
 25 50  1  0
 26 51  1  0
 27 28  1  0
 27 52  1  0
 27 53  1  0
 28 29  1  0
 28 54  1  0
 28 55  1  0
 29 32  1  0
 29 33  1  0
 29 58  1  0
 30 31  1  0
 30 56  1  0
 31 57  1  0
M  CHG  2  23   1  29   1
M  END
>  <s_epik_cmdline>  (2) 
J2VwaWtfcHl0aG9uJywgJy1waCcsICc3LjAwMDAwMCcsICctcGh0JywgJzIuMDAwMDAwJywgJy1tcycsICcxNicsICctdG4nLCAnOCcsICctbWEnLCAnMjAwJywgJy1pbWFlJywgJzxpbmZpbGUubWFlPicsICctb21hZScsICc8b3V0ZmlsZS5tYWU+Jw==

>  <s_epik_input>  (2) 
Q2xjMVtjSF1bY0hdYyhbY0hdW2NIXTEpTihbQ0gyXVtDSDJdW05IMl0pQyg9TyljMnNjKENsKWMoW2NIXTIpW05IXVtDSDJdYzNbY0hdYyhbY0hdW2NIXVtjSF0zKVtDSDJdTihbQ0gzXSlbQ0gzXQ==

>  <s_i_glide_gridfile>  (2) 
ATP-Grid

>  <s_lp_Force_Field>  (2) 
OPLS_2005

>  <s_lp_Variant>  (2) 
rxn512b____EMOL49832880____EMOL44846536____EMOL2873214-1

>  <s_lp_label>  (2) 
2428_sdstereoexpander_1_neutralizer_1_epik_1_stereoizer_1

>  <s_m_source_file>  (2) 
ATP-VSW-LIGPREP-001-in.maegz

>  <s_sd_BIOSOLVEIT.INFINISEE\_QUERY\_NAME>  (2) 
Ref-Lig

>  <s_sd_BIOSOLVEIT.INFINISEE\_QUERY\_SMILES>  (2) 
S(c1nc2c(cc1C[NH2+]Cc3ccc(cc3)C[NH+](C)C)cccc2)Cc4ccccc4

>  <s_sd_BIOSOLVEIT.INFINISEE\_REACTION\_NAME>  (2) 
rxn512b

>  <s_sd_BIOSOLVEIT.INFINISEE\_REAGENT1\_NAME>  (2) 
EMOL49832880

>  <s_sd_BIOSOLVEIT.INFINISEE\_REAGENT1\_SMILES>  (2) 
Clc1ccc(NCCN)cc1

>  <s_sd_BIOSOLVEIT.INFINISEE\_REAGENT2\_NAME>  (2) 
EMOL44846536

>  <s_sd_BIOSOLVEIT.INFINISEE\_REAGENT2\_SMILES>  (2) 
BrC1=C(Cl)SC(C(=O)O)=C1

>  <s_sd_BIOSOLVEIT.INFINISEE\_REAGENT3\_NAME>  (2) 
EMOL2873214

>  <s_sd_BIOSOLVEIT.INFINISEE\_REAGENT3\_SMILES>  (2) 
N(Cc1cc(ccc1)CN)(C)C

>  <s_sd_BIOSOLVEIT.INFINISEE\_SPACE>  (2) 
eXplore_7tr_2022-12

>  <s_vsw_compound_code>  (2) 
77665

>  <s_vsw_variant>  (2) 
77665-1

>  <r_epik_Charging_Adjusted_Penalty>  (2) 
0.098611016270995805

>  <r_epik_Ionization_Penalty>  (2) 
0.049500000000000002

>  <r_epik_Ionization_Penalty_Charging>  (2) 
0.049299999999999997

>  <r_epik_Ionization_Penalty_Neutral>  (2) 
0.0001

>  <r_epik_State_Penalty>  (2) 
0.049299999999999997

>  <r_i_docking_score>  (2) 
-5.3358770128671598

>  <r_i_glide_ecoul>  (2) 
-15.470862388610801

>  <r_i_glide_eff_state_penalty>  (2) 
0.049299999999999997

>  <r_i_glide_einternal>  (2) 
6.7056503295898402

>  <r_i_glide_emodel>  (2) 
-67.079193208922305

>  <r_i_glide_energy>  (2) 
-44.0188245773315

>  <r_i_glide_erotb>  (2) 
0.49381957744099098

>  <r_i_glide_esite>  (2) 
-0.14417805974708001

>  <r_i_glide_evdw>  (2) 
-28.5479621887207

>  <r_i_glide_gscore>  (2) 
-5.3851770128671603

>  <r_i_glide_hbond>  (2) 
-0.330125601631793

>  <r_i_glide_ligand_efficiency>  (2) 
-0.172125064931199

>  <r_i_glide_ligand_efficiency_ln>  (2) 
-1.2034037913933799

>  <r_i_glide_ligand_efficiency_sa>  (2) 
-0.54071034814754904

>  <r_i_glide_lipo>  (2) 
-0.60357593408382204

>  <r_i_glide_metal>  (2) 
-0

>  <r_i_glide_rewards>  (2) 
-1.0530895271178

>  <r_lp_Energy>  (2) 
38.870773

>  <r_lp_tautomer_probability>  (2) 
0.99999274205267796

>  <r_qp_ACxDN^.5/SA>  (2) 
0.0148367

>  <r_qp_CIQPlogS>  (2) 
-3.8450000000000002

>  <r_qp_EA(eV)>  (2) 
0.64000000000000001

>  <r_qp_FISA>  (2) 
108.461

>  <r_qp_FOSA>  (2) 
277.334

>  <r_qp_IP(eV)>  (2) 
8.2080000000000002

>  <r_qp_Jm>  (2) 
0.00015021839111326499

>  <r_qp_PISA>  (2) 
265.33300000000003

>  <r_qp_PSA>  (2) 
71.537000000000006

>  <r_qp_PercentHumanOralAbsorption>  (2) 
69.798000000000002

>  <r_qp_QPPCaco>  (2) 
14.390000000000001

>  <r_qp_QPPMDCK>  (2) 
55.558

>  <r_qp_QPlogBB>  (2) 
-0.082000000000000003

>  <r_qp_QPlogHERG>  (2) 
-8.8360000000000003

>  <r_qp_QPlogKhsa>  (2) 
0.64700000000000002

>  <r_qp_QPlogKp>  (2) 
-5.7489999999999997

>  <r_qp_QPlogPC16>  (2) 
16.52

>  <r_qp_QPlogPo/w>  (2) 
3.7789999999999999

>  <r_qp_QPlogPoct>  (2) 
24.687999999999999

>  <r_qp_QPlogPw>  (2) 
13.369

>  <r_qp_QPlogS>  (2) 
-3.7530000000000001

>  <r_qp_QPpolrz>  (2) 
48.366999999999997

>  <r_qp_SASA>  (2) 
817.18899999999996

>  <r_qp_SAamideO>  (2) 
0

>  <r_qp_SAfluorine>  (2) 
0

>  <r_qp_WPSA>  (2) 
166.06

>  <r_qp_accptHB>  (2) 
7

>  <r_qp_dip^2/V>  (2) 
0.0054473999999999998

>  <r_qp_dipole>  (2) 
2.8199999999999998

>  <r_qp_donorHB>  (2) 
3

>  <r_qp_glob>  (2) 
0.7614493

>  <r_qp_mol_MW>  (2) 
477.45100000000002

>  <r_qp_volume>  (2) 
1459.4770000000001

>  <r_sd_BIOSOLVEIT.INFINISEE\_FTREES\_SIMILARITY>  (2) 
0.91700000000000004

>  <r_sd_BIOSOLVEIT.LOGP>  (2) 
3.2002000000000002

>  <r_sd_BIOSOLVEIT.MOLECULAR\_WEIGHT>  (2) 
479.47199999999998

>  <r_sd_BIOSOLVEIT.TPSA>  (2) 
64.420000000000002

>  <i_epik_Tot_Q>  (2) 
2

>  <i_epik_Tot_abs_Q>  (2) 
2

>  <i_f3d_flags>  (2) 
0

>  <i_i_glide_confnum>  (2) 
1

>  <i_i_glide_lignum>  (2) 
937

>  <i_i_glide_posenum>  (2) 
10

>  <i_i_glide_rotatable_bonds>  (2) 
10

>  <i_lp_mmshare_version>  (2) 
65135

>  <i_m_ct_format>  (2) 
2

>  <i_m_source_file_index>  (2) 
2428

>  <i_qp_#NandO>  (2) 
5

>  <i_qp_#acid>  (2) 
0

>  <i_qp_#amide>  (2) 
0

>  <i_qp_#amidine>  (2) 
0

>  <i_qp_#amine>  (2) 
3

>  <i_qp_#in34>  (2) 
0

>  <i_qp_#in56>  (2) 
17

>  <i_qp_#metab>  (2) 
7

>  <i_qp_#nonHatm>  (2) 
31

>  <i_qp_#noncon>  (2) 
0

>  <i_qp_#ringatoms>  (2) 
17

>  <i_qp_#rotor>  (2) 
10

>  <i_qp_#rtvFG>  (2) 
0

>  <i_qp_#stars>  (2) 
0

>  <i_qp_CNS>  (2) 
0

>  <i_qp_HumanOralAbsorption>  (2) 
2

>  <i_qp_RuleOfFive>  (2) 
0

>  <i_qp_RuleOfThree>  (2) 
2

>  <i_sd_BIOSOLVEIT.INFINISEE\_RESULT\_RANK>  (2) 
23077

>  <i_sd_version>  (2) 
0

>  <b_lp_Chiralities_Consistent>  (2) 
1

>  <b_sd_chiral_flag>  (2) 
0

>  <canonical_id>  (2) 
ATP-HTVS-F0EA8E73CD83

>  <compound_code>  (2) 
77665

>  <title>  (2) 
rxn512b____EMOL49832880____EMOL44846536____EMOL2873214

>  <variant>  (2) 
77665-1

>  <source_file>  (2) 
运行/运行/ATP-VSW/ATP-VSW-DOCK_HTVS_1-001_lib/ATP-VSW-DOCK_HTVS_1-001_lib

>  <canonical_smiles>  (2) 
C[NH+](C)Cc1cccc(CNc2cc(C(=O)N(CC[NH3+])c3ccc(Cl)cc3)sc2Cl)c1

>  <scaffold>  (2) 
O=C(Nc1ccccc1)c1cc(NCc2ccccc2)cs1

>  <molecular_formula>  (2) 
C23H28Cl2N4OS+2

>  <acquisition_id_v2>  (2) 
ATP-ACQ2-0002

>  <selection_arm_v2>  (2) 
local_structure_bridge

>  <priority_v2>  (2) 
P0

$$$$
ATP-ACQ2-0003
     RDKit          3D

 59 62  0  0  0  0  0  0  0  0999 V2000
  189.5497  189.8687  162.1326 S   0  0  0  0  0  0  0  0  0  0  0  0
  190.9066  189.0836  161.2145 C   0  0  0  0  0  0  0  0  0  0  0  0
  191.0621  187.5960  161.5944 C   0  0  0  0  0  0  0  0  0  0  0  0
  192.2738  187.0688  161.0415 N   0  0  0  0  0  0  0  0  0  0  0  0
  193.4243  186.8857  161.7162 C   0  0  0  0  0  0  0  0  0  0  0  0
  193.5540  187.0811  162.9175 O   0  0  0  0  0  0  0  0  0  0  0  0
  194.6023  186.5192  160.8705 C   0  0  0  0  0  0  0  0  0  0  0  0
  195.6986  187.3990  160.8014 C   0  0  0  0  0  0  0  0  0  0  0  0
  195.7040  188.5871  161.4614 F   0  0  0  0  0  0  0  0  0  0  0  0
  196.8018  187.0710  160.0111 C   0  0  0  0  0  0  0  0  0  0  0  0
  196.8546  185.8501  159.2930 C   0  0  0  0  0  0  0  0  0  0  0  0
  195.7637  184.9675  159.3571 C   0  0  0  0  0  0  0  0  0  0  0  0
  194.6397  185.3129  160.1465 C   0  0  0  0  0  0  0  0  0  0  0  0
  197.9442  188.0306  159.9971 C   0  0  0  0  0  0  0  0  0  0  0  0
  197.8159  189.2095  159.1310 N   0  0  0  0  0  0  0  0  0  0  0  0
  198.9271  190.1482  159.3796 C   0  0  2  0  0  0  0  0  0  0  0  0
  198.8365  191.4194  158.5282 C   0  0  0  0  0  0  0  0  0  0  0  0
  199.0722  191.3645  157.1262 C   0  0  0  0  0  0  0  0  0  0  0  0
  199.2895  190.1655  156.4237 N   0  0  0  0  0  0  0  0  0  0  0  0
  198.6208  189.0069  156.6269 C   0  0  0  0  0  0  0  0  0  0  0  0
  198.9627  187.9879  156.0427 O   0  0  0  0  0  0  0  0  0  0  0  0
  197.4897  188.9463  157.6919 C   0  0  0  0  0  0  0  0  0  0  0  0
  199.1254  192.5367  156.3703 C   0  0  0  0  0  0  0  0  0  0  0  0
  198.8532  193.7857  156.9657 C   0  0  0  0  0  0  0  0  0  0  0  0
  198.5576  193.8504  158.3396 C   0  0  0  0  0  0  0  0  0  0  0  0
  198.5506  192.6801  159.1244 C   0  0  0  0  0  0  0  0  0  0  0  0
  200.3197  189.5016  159.2173 C   0  0  0  0  0  0  0  0  0  0  0  0
  201.4940  190.1960  159.5584 C   0  0  0  0  0  0  0  0  0  0  0  0
  202.7260  189.5686  159.3295 C   0  0  0  0  0  0  0  0  0  0  0  0
  202.8267  188.2632  158.7821 C   0  0  0  0  0  0  0  0  0  0  0  0
  201.6875  187.5635  158.4339 C   0  0  0  0  0  0  0  0  0  0  0  0
  200.4577  188.2055  158.6536 C   0  0  0  0  0  0  0  0  0  0  0  0
  189.4002  191.4146  161.1981 C   0  0  0  0  0  0  0  0  0  0  0  0
  190.7062  189.1781  160.1474 H   0  0  0  0  0  0  0  0  0  0  0  0
  191.8229  189.6361  161.4190 H   0  0  0  0  0  0  0  0  0  0  0  0
  191.0427  187.4890  162.6807 H   0  0  0  0  0  0  0  0  0  0  0  0
  190.2048  187.0384  161.2197 H   0  0  0  0  0  0  0  0  0  0  0  0
  192.2661  186.7546  160.0514 H   0  0  0  0  0  0  0  0  0  0  0  0
  197.7179  185.5874  158.6937 H   0  0  0  0  0  0  0  0  0  0  0  0
  195.7882  184.0369  158.8110 H   0  0  0  0  0  0  0  0  0  0  0  0
  193.8129  184.6318  160.1804 H   0  0  0  0  0  0  0  0  0  0  0  0
  198.2566  188.3173  160.9892 H   0  0  0  0  0  0  0  0  0  0  0  0
  198.6997  187.2987  159.8067 H   0  0  0  0  0  0  0  0  0  0  0  0
  198.8689  190.4671  160.4312 H   0  0  0  0  0  0  0  0  0  0  0  0
  200.0518  190.1219  155.7780 H   0  0  0  0  0  0  0  0  0  0  0  0
  197.0379  187.9546  157.6102 H   0  0  0  0  0  0  0  0  0  0  0  0
  196.7314  189.6463  157.3506 H   0  0  0  0  0  0  0  0  0  0  0  0
  199.3426  192.4813  155.3120 H   0  0  0  0  0  0  0  0  0  0  0  0
  198.8676  194.6770  156.3592 H   0  0  0  0  0  0  0  0  0  0  0  0
  198.3502  194.8133  158.7879 H   0  0  0  0  0  0  0  0  0  0  0  0
  198.3442  192.7621  160.1825 H   0  0  0  0  0  0  0  0  0  0  0  0
  201.4258  191.1933  159.9616 H   0  0  0  0  0  0  0  0  0  0  0  0
  203.6430  190.0910  159.5817 H   0  0  0  0  0  0  0  0  0  0  0  0
  203.7646  187.7662  158.6087 H   0  0  0  0  0  0  0  0  0  0  0  0
  201.6305  186.5882  158.0019 H   0  0  0  0  0  0  0  0  0  0  0  0
  199.6864  187.6121  158.2680 H   0  0  0  0  0  0  0  0  0  0  0  0
  188.6105  192.0347  161.6232 H   0  0  0  0  0  0  0  0  0  0  0  0
  189.1513  191.2060  160.1573 H   0  0  0  0  0  0  0  0  0  0  0  0
  190.3366  191.9715  161.2281 H   0  0  0  0  0  0  0  0  0  0  0  0
  1  2  1  0
  1 33  1  0
  2  3  1  0
  2 34  1  0
  2 35  1  0
  3  4  1  0
  3 36  1  0
  3 37  1  0
  4  5  1  0
  4 38  1  0
  5  6  2  0
  5  7  1  0
  7  8  2  0
  7 13  1  0
  8  9  1  0
  8 10  1  0
 10 11  2  0
 10 14  1  0
 11 12  1  0
 11 39  1  0
 12 13  2  0
 12 40  1  0
 13 41  1  0
 14 15  1  0
 14 42  1  0
 14 43  1  0
 15 16  1  0
 15 22  1  0
 16 17  1  0
 16 27  1  0
 16 44  1  1
 17 18  1  0
 17 26  2  0
 18 19  1  0
 18 23  2  0
 19 20  1  0
 19 45  1  0
 20 21  2  0
 20 22  1  0
 22 46  1  0
 22 47  1  0
 23 24  1  0
 23 48  1  0
 24 25  2  0
 24 49  1  0
 25 26  1  0
 25 50  1  0
 26 51  1  0
 27 28  2  0
 27 32  1  0
 28 29  1  0
 28 52  1  0
 29 30  2  0
 29 53  1  0
 30 31  1  0
 30 54  1  0
 31 32  2  0
 31 55  1  0
 32 56  1  0
 33 57  1  0
 33 58  1  0
 33 59  1  0
M  END
>  <s_epik_cmdline>  (3) 
J2VwaWtfcHl0aG9uJywgJy1waCcsICc3LjAwMDAwMCcsICctcGh0JywgJzIuMDAwMDAwJywgJy1tcycsICcxNicsICctdG4nLCAnOCcsICctbWEnLCAnMjAwJywgJy1pbWFlJywgJzxpbmZpbGUubWFlPicsICctb21hZScsICc8b3V0ZmlsZS5tYWU+Jw==

>  <s_epik_input>  (3) 
W0NIM11TW0NIMl1bQ0gyXVtOSF1DKD1PKWMxYyhGKWMoW2NIXVtjSF1bY0hdMSlbQ0gyXU4oW0NASF0yYzNbY0hdW2NIXVtjSF1bY0hdW2NIXTMpW0NIMl1DKD1PKVtOSF1jKGMyNClbY0hdW2NIXVtjSF1bY0hdNA==

>  <s_i_glide_gridfile>  (3) 
ATP-Grid

>  <s_lp_Force_Field>  (3) 
OPLS_2005

>  <s_lp_Variant>  (3) 
rxn512b____EMOL525124____EMOL49775718____EMOL6185419-2

>  <s_lp_label>  (3) 
2909_sdstereoexpander_3_neutralizer_1_epik_1_stereoizer_1

>  <s_m_source_file>  (3) 
ATP-VSW-LIGPREP-003-in.maegz

>  <s_sd_BIOSOLVEIT.INFINISEE\_QUERY\_NAME>  (3) 
Ref-Lig

>  <s_sd_BIOSOLVEIT.INFINISEE\_QUERY\_SMILES>  (3) 
S(c1nc2c(cc1C[NH2+]Cc3ccc(cc3)C[NH+](C)C)cccc2)Cc4ccccc4

>  <s_sd_BIOSOLVEIT.INFINISEE\_REACTION\_NAME>  (3) 
rxn512b

>  <s_sd_BIOSOLVEIT.INFINISEE\_REAGENT1\_NAME>  (3) 
EMOL525124

>  <s_sd_BIOSOLVEIT.INFINISEE\_REAGENT1\_SMILES>  (3) 
S(CCN)C

>  <s_sd_BIOSOLVEIT.INFINISEE\_REAGENT2\_NAME>  (3) 
EMOL49775718

>  <s_sd_BIOSOLVEIT.INFINISEE\_REAGENT2\_SMILES>  (3) 
BrCc1c(F)c(ccc1)C(=O)O

>  <s_sd_BIOSOLVEIT.INFINISEE\_REAGENT3\_NAME>  (3) 
EMOL6185419

>  <s_sd_BIOSOLVEIT.INFINISEE\_REAGENT3\_SMILES>  (3) 
O=C1Nc2c(cccc2)C(NC1)c3ccccc3

>  <s_sd_BIOSOLVEIT.INFINISEE\_SPACE>  (3) 
eXplore_7tr_2022-12

>  <s_vsw_compound_code>  (3) 
93059

>  <s_vsw_variant>  (3) 
93059-2

>  <r_epik_Charging_Adjusted_Penalty>  (3) 
0.0087634984339075902

>  <r_epik_Ionization_Penalty>  (3) 
0.0088000000000000005

>  <r_epik_Ionization_Penalty_Charging>  (3) 
0

>  <r_epik_Ionization_Penalty_Neutral>  (3) 
0.0088000000000000005

>  <r_epik_State_Penalty>  (3) 
0.0088000000000000005

>  <r_i_docking_score>  (3) 
-5.4539142314687696

>  <r_i_glide_ecoul>  (3) 
-4.5425910949706996

>  <r_i_glide_eff_state_penalty>  (3) 
0.0088000000000000005

>  <r_i_glide_einternal>  (3) 
6.7679171562194798

>  <r_i_glide_emodel>  (3) 
-50.479238826300701

>  <r_i_glide_energy>  (3) 
-40.000328063964801

>  <r_i_glide_erotb>  (3) 
0.65645422405475495

>  <r_i_glide_esite>  (3) 
-0.0027508944810086199

>  <r_i_glide_evdw>  (3) 
-35.457736968994098

>  <r_i_glide_gscore>  (3) 
-5.4627142314687704

>  <r_i_glide_hbond>  (3) 
-0.56532359962812495

>  <r_i_glide_ligand_efficiency>  (3) 
-0.165270128226326

>  <r_i_glide_ligand_efficiency_ln>  (3) 
-1.2129222862220701

>  <r_i_glide_ligand_efficiency_sa>  (3) 
-0.53010960939091001

>  <r_i_glide_lipo>  (3) 
-2.5252718056575998

>  <r_i_glide_metal>  (3) 
-0

>  <r_i_glide_rewards>  (3) 
-0.57154664306148395

>  <r_lp_Energy>  (3) 
56.415376000000002

>  <r_qp_ACxDN^.5/SA>  (3) 
0.0135511

>  <r_qp_CIQPlogS>  (3) 
-5.4889999999999999

>  <r_qp_EA(eV)>  (3) 
0.73399999999999999

>  <r_qp_FISA>  (3) 
104.098

>  <r_qp_FOSA>  (3) 
207.59100000000001

>  <r_qp_IP(eV)>  (3) 
8.9640000000000004

>  <r_qp_Jm>  (3) 
0.000286819323847685

>  <r_qp_PISA>  (3) 
411.95400000000001

>  <r_qp_PSA>  (3) 
76.534999999999997

>  <r_qp_PercentHumanOralAbsorption>  (3) 
95.855999999999995

>  <r_qp_QPPCaco>  (3) 
254.47

>  <r_qp_QPPMDCK>  (3) 
262.64499999999998

>  <r_qp_QPlogBB>  (3) 
-0.38600000000000001

>  <r_qp_QPlogHERG>  (3) 
-7.7300000000000004

>  <r_qp_QPlogKhsa>  (3) 
0.71799999999999997

>  <r_qp_QPlogKp>  (3) 
-3.4729999999999999

>  <r_qp_QPlogPC16>  (3) 
15.882

>  <r_qp_QPlogPo/w>  (3) 
4.4160000000000004

>  <r_qp_QPlogPoct>  (3) 
24.428999999999998

>  <r_qp_QPlogPw>  (3) 
14.127000000000001

>  <r_qp_QPlogS>  (3) 
-5.7350000000000003

>  <r_qp_QPpolrz>  (3) 
51.045999999999999

>  <r_qp_SASA>  (3) 
782.71100000000001

>  <r_qp_SAamideO>  (3) 
0

>  <r_qp_SAfluorine>  (3) 
16.382999999999999

>  <r_qp_WPSA>  (3) 
59.067999999999998

>  <r_qp_accptHB>  (3) 
7.5

>  <r_qp_dip^2/V>  (3) 
0.0103254

>  <r_qp_dipole>  (3) 
3.839

>  <r_qp_donorHB>  (3) 
2

>  <r_qp_glob>  (3) 
0.78324380000000005

>  <r_qp_mol_MW>  (3) 
463.56900000000002

>  <r_qp_volume>  (3) 
1427.251

>  <r_sd_BIOSOLVEIT.INFINISEE\_FTREES\_SIMILARITY>  (3) 
0.90400000000000003

>  <r_sd_BIOSOLVEIT.LOGP>  (3) 
3.0451000000000001

>  <r_sd_BIOSOLVEIT.MOLECULAR\_WEIGHT>  (3) 
464.58100000000002

>  <r_sd_BIOSOLVEIT.TPSA>  (3) 
62.640000000000001

>  <i_epik_Tot_Q>  (3) 
0

>  <i_epik_Tot_abs_Q>  (3) 
0

>  <i_f3d_flags>  (3) 
0

>  <i_i_glide_confnum>  (3) 
2

>  <i_i_glide_lignum>  (3) 
1427

>  <i_i_glide_posenum>  (3) 
9

>  <i_i_glide_rotatable_bonds>  (3) 
8

>  <i_lp_mmshare_version>  (3) 
65135

>  <i_m_ct_format>  (3) 
2

>  <i_m_source_file_index>  (3) 
2909

>  <i_qp_#NandO>  (3) 
5

>  <i_qp_#acid>  (3) 
0

>  <i_qp_#amide>  (3) 
0

>  <i_qp_#amidine>  (3) 
0

>  <i_qp_#amine>  (3) 
1

>  <i_qp_#in34>  (3) 
0

>  <i_qp_#in56>  (3) 
18

>  <i_qp_#metab>  (3) 
7

>  <i_qp_#nonHatm>  (3) 
33

>  <i_qp_#noncon>  (3) 
2

>  <i_qp_#ringatoms>  (3) 
23

>  <i_qp_#rotor>  (3) 
6

>  <i_qp_#rtvFG>  (3) 
0

>  <i_qp_#stars>  (3) 
0

>  <i_qp_CNS>  (3) 
1

>  <i_qp_HumanOralAbsorption>  (3) 
3

>  <i_qp_RuleOfFive>  (3) 
0

>  <i_qp_RuleOfThree>  (3) 
2

>  <i_sd_BIOSOLVEIT.INFINISEE\_RESULT\_RANK>  (3) 
75856

>  <i_sd_version>  (3) 
0

>  <b_lp_Chiralities_Consistent>  (3) 
1

>  <b_sd_chiral_flag>  (3) 
0

>  <canonical_id>  (3) 
ATP-HTVS-FDB0F1EC6F74

>  <compound_code>  (3) 
93059

>  <title>  (3) 
rxn512b____EMOL525124____EMOL49775718____EMOL6185419

>  <variant>  (3) 
93059-2

>  <source_file>  (3) 
运行/运行/ATP-VSW/ATP-VSW-DOCK_HTVS_1-003_lib/ATP-VSW-DOCK_HTVS_1-003_lib.mae

>  <canonical_smiles>  (3) 
CSCCNC(=O)c1cccc(CN2CC(=O)Nc3ccccc3[C@@H]2c2ccccc2)c1F

>  <scaffold>  (3) 
O=C1CN(Cc2ccccc2)C(c2ccccc2)c2ccccc2N1

>  <molecular_formula>  (3) 
C26H26FN3O2S

>  <acquisition_id_v2>  (3) 
ATP-ACQ2-0003

>  <selection_arm_v2>  (3) 
scaffold_score_exploration

>  <priority_v2>  (3) 
P0

$$$$
ATP-ACQ2-0004
     RDKit          3D

 56 59  0  0  0  0  0  0  0  0999 V2000
  197.5163  184.2612  152.2366 F   0  0  0  0  0  0  0  0  0  0  0  0
  197.1323  182.9620  152.2910 C   0  0  0  0  0  0  0  0  0  0  0  0
  197.0932  182.3465  153.5280 C   0  0  0  0  0  0  0  0  0  0  0  0
  196.7696  180.9771  153.6503 C   0  0  0  0  0  0  0  0  0  0  0  0
  196.3673  180.2526  152.4800 C   0  0  0  0  0  0  0  0  0  0  0  0
  196.3457  180.9146  151.2259 C   0  0  0  0  0  0  0  0  0  0  0  0
  196.7447  182.2699  151.1190 C   0  0  0  0  0  0  0  0  0  0  0  0
  196.7892  180.2449  155.0028 C   0  0  2  0  0  0  0  0  0  0  0  0
  196.5059  181.1537  156.1458 N   0  0  0  0  0  0  0  0  0  0  0  0
  197.6575  182.0033  156.6197 C   0  0  0  0  0  0  0  0  0  0  0  0
  197.0196  183.0428  157.4542 C   0  0  0  0  0  0  0  0  0  0  0  0
  196.5373  183.9325  158.1423 C   0  0  0  0  0  0  0  0  0  0  0  0
  195.9867  184.9194  159.0438 C   0  0  0  0  0  0  0  0  0  0  0  0
  196.6014  186.1595  159.3249 C   0  0  0  0  0  0  0  0  0  0  0  0
  195.9671  187.0320  160.2404 C   0  0  0  0  0  0  0  0  0  0  0  0
  194.7499  186.6210  160.8386 C   0  0  0  0  0  0  0  0  0  0  0  0
  194.1560  185.4541  160.4993 N   0  0  0  0  0  0  0  0  0  0  0  0
  194.7706  184.6073  159.6634 C   0  0  0  0  0  0  0  0  0  0  0  0
  194.1248  187.5258  161.7355 N   0  0  0  0  0  0  0  0  0  0  0  0
  193.1047  187.3380  162.5932 C   0  0  0  0  0  0  0  0  0  0  0  0
  192.6712  186.2343  162.9326 O   0  0  0  0  0  0  0  0  0  0  0  0
  192.5957  188.5846  163.2686 C   0  0  0  0  0  0  0  0  0  0  0  0
  191.9619  188.4973  164.5320 C   0  0  0  0  0  0  0  0  0  0  0  0
  191.4535  189.6536  165.1594 C   0  0  0  0  0  0  0  0  0  0  0  0
  190.8444  189.5689  166.3779 O   0  0  0  0  0  0  0  0  0  0  0  0
  191.5867  190.9067  164.5310 C   0  0  0  0  0  0  0  0  0  0  0  0
  192.2246  191.0067  163.2819 C   0  0  0  0  0  0  0  0  0  0  0  0
  192.7374  189.8564  162.6582 C   0  0  0  0  0  0  0  0  0  0  0  0
  196.5581  188.2864  160.5163 C   0  0  0  0  0  0  0  0  0  0  0  0
  197.7732  188.6506  159.9146 C   0  0  0  0  0  0  0  0  0  0  0  0
  198.4126  187.7731  159.0249 C   0  0  0  0  0  0  0  0  0  0  0  0
  197.8297  186.5311  158.7290 C   0  0  0  0  0  0  0  0  0  0  0  0
  198.0902  179.4514  155.2427 C   0  0  0  0  0  0  0  0  0  0  0  0
  195.6765  181.7110  155.8938 H   0  0  0  0  0  0  0  0  0  0  0  0
  197.2854  183.0497  154.2859 H   0  0  0  0  0  0  0  0  0  0  0  0
  196.0335  179.1938  152.5385 H   0  0  0  0  0  0  0  0  0  0  0  0
  196.0279  180.4078  150.3413 H   0  0  0  0  0  0  0  0  0  0  0  0
  196.7461  182.8295  150.1638 H   0  0  0  0  0  0  0  0  0  0  0  0
  195.9808  179.5043  155.0278 H   0  0  0  0  0  0  0  0  0  0  0  0
  198.3786  181.4049  157.2308 H   0  0  0  0  0  0  0  0  0  0  0  0
  198.2904  182.4956  155.9146 H   0  0  0  0  0  0  0  0  0  0  0  0
  194.2616  183.6676  159.4858 H   0  0  0  0  0  0  0  0  0  0  0  0
  194.4569  188.4777  161.6664 H   0  0  0  0  0  0  0  0  0  0  0  0
  191.8484  187.5356  165.0200 H   0  0  0  0  0  0  0  0  0  0  0  0
  190.8671  188.6928  166.7318 H   0  0  0  0  0  0  0  0  0  0  0  0
  191.2015  191.7984  165.0010 H   0  0  0  0  0  0  0  0  0  0  0  0
  192.3235  191.9606  162.7891 H   0  0  0  0  0  0  0  0  0  0  0  0
  193.1934  189.9537  161.6862 H   0  0  0  0  0  0  0  0  0  0  0  0
  196.1194  188.9879  161.2065 H   0  0  0  0  0  0  0  0  0  0  0  0
  198.2292  189.5964  160.1640 H   0  0  0  0  0  0  0  0  0  0  0  0
  199.3528  188.0555  158.5772 H   0  0  0  0  0  0  0  0  0  0  0  0
  198.3455  185.8766  158.0421 H   0  0  0  0  0  0  0  0  0  0  0  0
  198.2766  178.7313  154.4459 H   0  0  0  0  0  0  0  0  0  0  0  0
  198.0500  178.8917  156.1794 H   0  0  0  0  0  0  0  0  0  0  0  0
  198.9583  180.1119  155.2872 H   0  0  0  0  0  0  0  0  0  0  0  0
  196.1979  180.5345  156.9211 H   0  0  0  0  0  0  0  0  0  0  0  0
  1  2  1  0
  2  3  2  0
  2  7  1  0
  3  4  1  0
  3 35  1  0
  4  5  2  0
  4  8  1  0
  5  6  1  0
  5 36  1  0
  6  7  2  0
  6 37  1  0
  7 38  1  0
  8  9  1  0
  8 33  1  0
  8 39  1  6
  9 10  1  0
  9 34  1  0
  9 56  1  0
 10 11  1  0
 10 40  1  0
 10 41  1  0
 11 12  3  0
 12 13  1  0
 13 14  2  0
 13 18  1  0
 14 15  1  0
 14 32  1  0
 15 16  2  0
 15 29  1  0
 16 17  1  0
 16 19  1  0
 17 18  2  0
 18 42  1  0
 19 20  1  0
 19 43  1  0
 20 21  2  0
 20 22  1  0
 22 23  1  0
 22 28  2  0
 23 24  2  0
 23 44  1  0
 24 25  1  0
 24 26  1  0
 25 45  1  0
 26 27  2  0
 26 46  1  0
 27 28  1  0
 27 47  1  0
 28 48  1  0
 29 30  2  0
 29 49  1  0
 30 31  1  0
 30 50  1  0
 31 32  2  0
 31 51  1  0
 32 52  1  0
 33 53  1  0
 33 54  1  0
 33 55  1  0
M  CHG  1   9   1
M  END
>  <s_epik_cmdline>  (4) 
J2VwaWtfcHl0aG9uJywgJy1waCcsICc3LjAwMDAwMCcsICctcGh0JywgJzIuMDAwMDAwJywgJy1tcycsICcxNicsICctdG4nLCAnOCcsICctbWEnLCAnMjAwJywgJy1pbWFlJywgJzxpbmZpbGUubWFlPicsICctb21hZScsICc8b3V0ZmlsZS5tYWU+Jw==

>  <s_epik_input>  (4) 
RmMxW2NIXWMoW2NIXVtjSF1bY0hdMSlbQ0BASF0oW0NIM10pW05IXVtDSDJdQyNDYzJbY0hdbmMoYyhjMjMpW2NIXVtjSF1bY0hdW2NIXTMpW05IXUMoPU8pYzRbY0hdYyhbT0hdKVtjSF1bY0hdW2NIXTQ=

>  <s_i_glide_gridfile>  (4) 
ATP-Grid

>  <s_lp_Force_Field>  (4) 
OPLS_2005

>  <s_lp_Variant>  (4) 
rxn503b____EMOL519605____EMOL7515103____EMOL317509042-3

>  <s_lp_label>  (4) 
2618_sdstereoexpander_1_neutralizer_1_epik_2_stereoizer_1

>  <s_m_source_file>  (4) 
ATP-VSW-LIGPREP-003-in.maegz

>  <s_sd_BIOSOLVEIT.INFINISEE\_QUERY\_NAME>  (4) 
Ref-Lig

>  <s_sd_BIOSOLVEIT.INFINISEE\_QUERY\_SMILES>  (4) 
S(c1nc2c(cc1C[NH2+]Cc3ccc(cc3)C[NH+](C)C)cccc2)Cc4ccccc4

>  <s_sd_BIOSOLVEIT.INFINISEE\_REACTION\_NAME>  (4) 
rxn503b

>  <s_sd_BIOSOLVEIT.INFINISEE\_REAGENT1\_NAME>  (4) 
EMOL519605

>  <s_sd_BIOSOLVEIT.INFINISEE\_REAGENT1\_SMILES>  (4) 
O=C(O)c1cc(O)ccc1

>  <s_sd_BIOSOLVEIT.INFINISEE\_REAGENT2\_NAME>  (4) 
EMOL7515103

>  <s_sd_BIOSOLVEIT.INFINISEE\_REAGENT2\_SMILES>  (4) 
Brc1c2c(c(nc1)N)cccc2

>  <s_sd_BIOSOLVEIT.INFINISEE\_REAGENT3\_NAME>  (4) 
EMOL317509042

>  <s_sd_BIOSOLVEIT.INFINISEE\_REAGENT3\_SMILES>  (4) 
Fc1cc(ccc1)C(NCC#C)C

>  <s_sd_BIOSOLVEIT.INFINISEE\_SPACE>  (4) 
eXplore_7tr_2022-12

>  <s_vsw_compound_code>  (4) 
83747

>  <s_vsw_variant>  (4) 
83747-3

>  <r_epik_Charging_Adjusted_Penalty>  (4) 
1.26014688583507

>  <r_epik_Ionization_Penalty>  (4) 
0.63260000000000005

>  <r_epik_Ionization_Penalty_Charging>  (4) 
0.62760000000000005

>  <r_epik_Ionization_Penalty_Neutral>  (4) 
0.0050000000000000001

>  <r_epik_State_Penalty>  (4) 
0.63260000000000005

>  <r_i_docking_score>  (4) 
-6.8080311750360698

>  <r_i_glide_ecoul>  (4) 
-12.7041931152344

>  <r_i_glide_eff_state_penalty>  (4) 
0.63260000000000005

>  <r_i_glide_einternal>  (4) 
6.27807664871216

>  <r_i_glide_emodel>  (4) 
-92.053093936602494

>  <r_i_glide_energy>  (4) 
-59.172935485839801

>  <r_i_glide_erotb>  (4) 
0.72034826401853402

>  <r_i_glide_esite>  (4) 
-0.090740604689311499

>  <r_i_glide_evdw>  (4) 
-46.468742370605497

>  <r_i_glide_gscore>  (4) 
-7.4406311750360699

>  <r_i_glide_hbond>  (4) 
-0.54026008402495995

>  <r_i_glide_ligand_efficiency>  (4) 
-0.20630397500109299

>  <r_i_glide_ligand_efficiency_ln>  (4) 
-1.5140708832291401

>  <r_i_glide_ligand_efficiency_sa>  (4) 
-0.66172708145936299

>  <r_i_glide_lipo>  (4) 
-2.4326195912099302

>  <r_i_glide_metal>  (4) 
-0

>  <r_i_glide_rewards>  (4) 
-0.86829307331497596

>  <r_lp_Energy>  (4) 
24.252707999999998

>  <r_lp_tautomer_probability>  (4) 
0.999999999997365

>  <r_qp_ACxDN^.5/SA>  (4) 
0.0121023

>  <r_qp_CIQPlogS>  (4) 
-5.9480000000000004

>  <r_qp_EA(eV)>  (4) 
1.1990000000000001

>  <r_qp_FISA>  (4) 
128.16399999999999

>  <r_qp_FOSA>  (4) 
128.63499999999999

>  <r_qp_IP(eV)>  (4) 
8.3940000000000001

>  <r_qp_Jm>  (4) 
6.4133655119297004e-05

>  <r_qp_PISA>  (4) 
519.16499999999996

>  <r_qp_PSA>  (4) 
80.298000000000002

>  <r_qp_PercentHumanOralAbsorption>  (4) 
94.281999999999996

>  <r_qp_QPPCaco>  (4) 
150.459

>  <r_qp_QPPMDCK>  (4) 
127.748

>  <r_qp_QPlogBB>  (4) 
-0.93799999999999994

>  <r_qp_QPlogHERG>  (4) 
-8.8369999999999997

>  <r_qp_QPlogKhsa>  (4) 
0.86599999999999999

>  <r_qp_QPlogKp>  (4) 
-3.347

>  <r_qp_QPlogPC16>  (4) 
16.818000000000001

>  <r_qp_QPlogPo/w>  (4) 
4.8440000000000003

>  <r_qp_QPlogPoct>  (4) 
25.765000000000001

>  <r_qp_QPlogPw>  (4) 
14.412000000000001

>  <r_qp_QPlogS>  (4) 
-6.4889999999999999

>  <r_qp_QPpolrz>  (4) 
50.957000000000001

>  <r_qp_SASA>  (4) 
822.923

>  <r_qp_SAamideO>  (4) 
0

>  <r_qp_SAfluorine>  (4) 
46.957999999999998

>  <r_qp_WPSA>  (4) 
46.957999999999998

>  <r_qp_accptHB>  (4) 
5.75

>  <r_qp_dip^2/V>  (4) 
0.074619900000000003

>  <r_qp_dipole>  (4) 
10.335000000000001

>  <r_qp_donorHB>  (4) 
3

>  <r_qp_glob>  (4) 
0.74645799999999995

>  <r_qp_mol_MW>  (4) 
439.488

>  <r_qp_volume>  (4) 
1431.5260000000001

>  <r_sd_BIOSOLVEIT.INFINISEE\_FTREES\_SIMILARITY>  (4) 
0.91100000000000003

>  <r_sd_BIOSOLVEIT.LOGP>  (4) 
4.0079000000000002

>  <r_sd_BIOSOLVEIT.MOLECULAR\_WEIGHT>  (4) 
440.49599999999998

>  <r_sd_BIOSOLVEIT.TPSA>  (4) 
78.829999999999998

>  <i_epik_Tot_Q>  (4) 
1

>  <i_epik_Tot_abs_Q>  (4) 
1

>  <i_f3d_flags>  (4) 
0

>  <i_i_glide_confnum>  (4) 
2

>  <i_i_glide_lignum>  (4) 
1192

>  <i_i_glide_posenum>  (4) 
10

>  <i_i_glide_rotatable_bonds>  (4) 
9

>  <i_lp_mmshare_version>  (4) 
65135

>  <i_m_ct_format>  (4) 
2

>  <i_m_source_file_index>  (4) 
2618

>  <i_qp_#NandO>  (4) 
5

>  <i_qp_#acid>  (4) 
0

>  <i_qp_#amide>  (4) 
0

>  <i_qp_#amidine>  (4) 
0

>  <i_qp_#amine>  (4) 
1

>  <i_qp_#in34>  (4) 
0

>  <i_qp_#in56>  (4) 
22

>  <i_qp_#metab>  (4) 
6

>  <i_qp_#nonHatm>  (4) 
33

>  <i_qp_#noncon>  (4) 
0

>  <i_qp_#ringatoms>  (4) 
22

>  <i_qp_#rotor>  (4) 
8

>  <i_qp_#rtvFG>  (4) 
0

>  <i_qp_#stars>  (4) 
2

>  <i_qp_CNS>  (4) 
-1

>  <i_qp_HumanOralAbsorption>  (4) 
1

>  <i_qp_RuleOfFive>  (4) 
0

>  <i_qp_RuleOfThree>  (4) 
1

>  <i_sd_BIOSOLVEIT.INFINISEE\_RESULT\_RANK>  (4) 
43229

>  <i_sd_version>  (4) 
0

>  <b_lp_Chiralities_Consistent>  (4) 
1

>  <b_sd_chiral_flag>  (4) 
0

>  <canonical_id>  (4) 
ATP-HTVS-780990BE0E68

>  <compound_code>  (4) 
83747

>  <title>  (4) 
rxn503b____EMOL519605____EMOL7515103____EMOL317509042

>  <variant>  (4) 
83747-3

>  <source_file>  (4) 
运行/运行/ATP-VSW/ATP-VSW-DOCK_HTVS_1-003_lib/ATP-VSW-DOCK_HTVS_1-003_lib.mae

>  <canonical_smiles>  (4) 
C[C@@H]([NH2+]CC#Cc1cnc(NC(=O)c2cccc(O)c2)c2ccccc12)c1cccc(F)c1

>  <scaffold>  (4) 
O=C(Nc1ncc(C#CC[NH2+]Cc2ccccc2)c2ccccc12)c1ccccc1

>  <molecular_formula>  (4) 
C27H23FN3O2+

>  <acquisition_id_v2>  (4) 
ATP-ACQ2-0004

>  <selection_arm_v2>  (4) 
exploitation

>  <priority_v2>  (4) 
P0

$$$$
ATP-ACQ2-0005
     RDKit          3D

 59 61  0  0  0  0  0  0  0  0999 V2000
  197.8157  183.1593  153.7840 S   0  0  0  0  0  0  0  0  0  0  0  0
  197.0895  182.1996  155.0495 C   0  0  0  0  0  0  0  0  0  0  0  0
  196.9238  182.8604  156.3701 C   0  0  0  0  0  0  0  0  0  0  0  0
  197.3289  184.0110  156.5498 O   0  0  0  0  0  0  0  0  0  0  0  0
  196.2791  182.1463  157.3144 N   0  0  0  0  0  0  0  0  0  0  0  0
  195.7212  182.6256  158.5889 C   0  0  1  0  0  0  0  0  0  0  0  0
  196.3219  183.9588  159.0330 C   0  0  0  0  0  0  0  0  0  0  0  0
  197.6707  184.0174  159.4201 C   0  0  0  0  0  0  0  0  0  0  0  0
  198.2691  185.2533  159.7280 C   0  0  0  0  0  0  0  0  0  0  0  0
  197.5069  186.4411  159.7014 C   0  0  0  0  0  0  0  0  0  0  0  0
  196.1505  186.3903  159.3405 C   0  0  0  0  0  0  0  0  0  0  0  0
  195.5580  185.1546  159.0123 C   0  0  0  0  0  0  0  0  0  0  0  0
  194.1774  182.6577  158.5220 C   0  0  0  0  0  0  0  0  0  0  0  0
  193.5034  181.3072  158.2517 C   0  0  0  0  0  0  0  0  0  0  0  0
  196.7519  180.9471  154.5920 C   0  0  0  0  0  0  0  0  0  0  0  0
  197.1093  180.7518  153.2231 C   0  0  0  0  0  0  0  0  0  0  0  0
  196.8956  179.5156  152.5977 N   0  0  0  0  0  0  0  0  0  0  0  0
  197.9819  178.8832  151.8552 C   0  0  0  0  0  0  0  0  0  0  0  0
  199.3337  178.7799  152.5646 C   0  0  0  0  0  0  0  0  0  0  0  0
  199.4352  178.7791  153.9749 C   0  0  0  0  0  0  0  0  0  0  0  0
  200.6963  178.7357  154.6050 C   0  0  0  0  0  0  0  0  0  0  0  0
  201.8665  178.6438  153.8215 C   0  0  0  0  0  0  0  0  0  0  0  0
  201.7698  178.5992  152.4176 C   0  0  0  0  0  0  0  0  0  0  0  0
  200.5092  178.6732  151.7931 C   0  0  0  0  0  0  0  0  0  0  0  0
  200.7862  178.7893  156.1180 C   0  0  0  0  0  0  0  0  0  0  0  0
  200.4671  177.4857  156.7618 N   0  0  0  0  0  0  0  0  0  0  0  0
  201.2413  176.3455  156.2194 C   0  0  0  0  0  0  0  0  0  0  0  0
  200.5996  177.5655  158.2268 C   0  0  0  0  0  0  0  0  0  0  0  0
  197.7048  181.8479  152.6546 C   0  0  0  0  0  0  0  0  0  0  0  0
  196.0101  181.2032  157.0834 H   0  0  0  0  0  0  0  0  0  0  0  0
  196.0005  181.8757  159.3328 H   0  0  0  0  0  0  0  0  0  0  0  0
  198.2655  183.1124  159.4264 H   0  0  0  0  0  0  0  0  0  0  0  0
  199.3211  185.2981  159.9560 H   0  0  0  0  0  0  0  0  0  0  0  0
  197.9699  187.3905  159.9143 H   0  0  0  0  0  0  0  0  0  0  0  0
  195.5671  187.2961  159.2620 H   0  0  0  0  0  0  0  0  0  0  0  0
  194.5297  185.1749  158.6880 H   0  0  0  0  0  0  0  0  0  0  0  0
  193.7903  183.0536  159.4535 H   0  0  0  0  0  0  0  0  0  0  0  0
  193.8433  183.3561  157.7627 H   0  0  0  0  0  0  0  0  0  0  0  0
  192.4235  181.4311  158.1307 H   0  0  0  0  0  0  0  0  0  0  0  0
  193.6791  180.6213  159.0794 H   0  0  0  0  0  0  0  0  0  0  0  0
  193.8693  180.8469  157.3368 H   0  0  0  0  0  0  0  0  0  0  0  0
  196.2842  180.1827  155.1957 H   0  0  0  0  0  0  0  0  0  0  0  0
  196.3136  178.8763  153.1182 H   0  0  0  0  0  0  0  0  0  0  0  0
  197.6580  177.8785  151.5871 H   0  0  0  0  0  0  0  0  0  0  0  0
  198.1176  179.4331  150.9230 H   0  0  0  0  0  0  0  0  0  0  0  0
  198.5491  178.8245  154.5893 H   0  0  0  0  0  0  0  0  0  0  0  0
  202.8384  178.5987  154.2922 H   0  0  0  0  0  0  0  0  0  0  0  0
  202.6660  178.5170  151.8197 H   0  0  0  0  0  0  0  0  0  0  0  0
  200.4505  178.6495  150.7148 H   0  0  0  0  0  0  0  0  0  0  0  0
  201.7821  179.1203  156.4119 H   0  0  0  0  0  0  0  0  0  0  0  0
  200.0883  179.5468  156.4797 H   0  0  0  0  0  0  0  0  0  0  0  0
  202.3122  176.5160  156.3317 H   0  0  0  0  0  0  0  0  0  0  0  0
  201.0244  176.1810  155.1636 H   0  0  0  0  0  0  0  0  0  0  0  0
  200.9875  175.4254  156.7462 H   0  0  0  0  0  0  0  0  0  0  0  0
  201.6198  177.8003  158.5299 H   0  0  0  0  0  0  0  0  0  0  0  0
  200.2971  176.6366  158.7140 H   0  0  0  0  0  0  0  0  0  0  0  0
  199.9485  178.3586  158.5768 H   0  0  0  0  0  0  0  0  0  0  0  0
  198.0923  181.9790  151.6521 H   0  0  0  0  0  0  0  0  0  0  0  0
  199.4875  177.3129  156.5892 H   0  0  0  0  0  0  0  0  0  0  0  0
  1  2  1  0
  1 29  1  0
  2  3  1  0
  2 15  2  0
  3  4  2  0
  3  5  1  0
  5  6  1  0
  5 30  1  0
  6  7  1  0
  6 13  1  0
  6 31  1  1
  7  8  2  0
  7 12  1  0
  8  9  1  0
  8 32  1  0
  9 10  2  0
  9 33  1  0
 10 11  1  0
 10 34  1  0
 11 12  2  0
 11 35  1  0
 12 36  1  0
 13 14  1  0
 13 37  1  0
 13 38  1  0
 14 39  1  0
 14 40  1  0
 14 41  1  0
 15 16  1  0
 15 42  1  0
 16 17  1  0
 16 29  2  0
 17 18  1  0
 17 43  1  0
 18 19  1  0
 18 44  1  0
 18 45  1  0
 19 20  2  0
 19 24  1  0
 20 21  1  0
 20 46  1  0
 21 22  2  0
 21 25  1  0
 22 23  1  0
 22 47  1  0
 23 24  2  0
 23 48  1  0
 24 49  1  0
 25 26  1  0
 25 50  1  0
 25 51  1  0
 26 27  1  0
 26 28  1  0
 26 59  1  0
 27 52  1  0
 27 53  1  0
 27 54  1  0
 28 55  1  0
 28 56  1  0
 28 57  1  0
 29 58  1  0
M  CHG  1  26   1
M  END
>  <s_epik_cmdline>  (5) 
J2VwaWtfcHl0aG9uJywgJy1waCcsICc3LjAwMDAwMCcsICctcGh0JywgJzIuMDAwMDAwJywgJy1tcycsICcxNicsICctdG4nLCAnOCcsICctbWEnLCAnMjAwJywgJy1pbWFlJywgJzxpbmZpbGUubWFlPicsICctb21hZScsICc8b3V0ZmlsZS5tYWU+Jw==

>  <s_epik_input>  (5) 
W2NIXTFbY0hdW2NIXWMoW0NIMl1OKFtDSDNdKVtDSDNdKVtjSF1jMVtDSDJdW05IXWMoW2NIXTIpW2NIXXNjMkMoPU8pW05IXVtDQEhdKFtDSDJdW0NIM10pYzNbY0hdW2NIXVtjSF1bY0hdW2NIXTM=

>  <s_i_glide_gridfile>  (5) 
ATP-Grid

>  <s_lp_Force_Field>  (5) 
OPLS_2005

>  <s_lp_Variant>  (5) 
rxn512b____EMOL509166____EMOL720738____EMOL2873214-1

>  <s_lp_label>  (5) 
2847_sdstereoexpander_1_neutralizer_1_epik_1_stereoizer_1

>  <s_m_source_file>  (5) 
ATP-VSW-LIGPREP-001-in.maegz

>  <s_sd_BIOSOLVEIT.INFINISEE\_QUERY\_NAME>  (5) 
Ref-Lig

>  <s_sd_BIOSOLVEIT.INFINISEE\_QUERY\_SMILES>  (5) 
S(c1nc2c(cc1C[NH2+]Cc3ccc(cc3)C[NH+](C)C)cccc2)Cc4ccccc4

>  <s_sd_BIOSOLVEIT.INFINISEE\_REACTION\_NAME>  (5) 
rxn512b

>  <s_sd_BIOSOLVEIT.INFINISEE\_REAGENT1\_NAME>  (5) 
EMOL509166

>  <s_sd_BIOSOLVEIT.INFINISEE\_REAGENT1\_SMILES>  (5) 
NC(c1ccccc1)CC

>  <s_sd_BIOSOLVEIT.INFINISEE\_REAGENT2\_NAME>  (5) 
EMOL720738

>  <s_sd_BIOSOLVEIT.INFINISEE\_REAGENT2\_SMILES>  (5) 
BrC1=CSC(C(=O)O)=C1

>  <s_sd_BIOSOLVEIT.INFINISEE\_REAGENT3\_NAME>  (5) 
EMOL2873214

>  <s_sd_BIOSOLVEIT.INFINISEE\_REAGENT3\_SMILES>  (5) 
N(Cc1cc(ccc1)CN)(C)C

>  <s_sd_BIOSOLVEIT.INFINISEE\_SPACE>  (5) 
eXplore_7tr_2022-12

>  <s_vsw_compound_code>  (5) 
91073

>  <s_vsw_variant>  (5) 
91073-1

>  <r_epik_Charging_Adjusted_Penalty>  (5) 
0.086140609825027206

>  <r_epik_Ionization_Penalty>  (5) 
0.043099999999999999

>  <r_epik_Ionization_Penalty_Charging>  (5) 
0.043099999999999999

>  <r_epik_Ionization_Penalty_Neutral>  (5) 
0

>  <r_epik_State_Penalty>  (5) 
0.043099999999999999

>  <r_i_docking_score>  (5) 
-4.4075856409840002

>  <r_i_glide_ecoul>  (5) 
-8.3369121551513707

>  <r_i_glide_eff_state_penalty>  (5) 
0.043099999999999999

>  <r_i_glide_einternal>  (5) 
8.63568210601807

>  <r_i_glide_emodel>  (5) 
-55.577574161954402

>  <r_i_glide_energy>  (5) 
-43.5440769195557

>  <r_i_glide_erotb>  (5) 
0.825328389943362

>  <r_i_glide_esite>  (5) 
-0.155925727092525

>  <r_i_glide_evdw>  (5) 
-35.207164764404297

>  <r_i_glide_gscore>  (5) 
-4.4506856409840001

>  <r_i_glide_hbond>  (5) 
-0.073542419814746796

>  <r_i_glide_ligand_efficiency>  (5) 
-0.15198571175806899

>  <r_i_glide_ligand_efficiency_ln>  (5) 
-1.0092253450569799

>  <r_i_glide_ligand_efficiency_sa>  (5) 
-0.46694825897403702

>  <r_i_glide_lipo>  (5) 
-1.1873360497998999

>  <r_i_glide_metal>  (5) 
-0

>  <r_i_glide_rewards>  (5) 
-0.84831477272727096

>  <r_lp_Energy>  (5) 
14.441268000000001

>  <r_lp_tautomer_probability>  (5) 
0.99999274205267796

>  <r_qp_ACxDN^.5/SA>  (5) 
0.010853

>  <r_qp_CIQPlogS>  (5) 
-4.1559999999999997

>  <r_qp_EA(eV)>  (5) 
0.65900000000000003

>  <r_qp_FISA>  (5) 
60.146999999999998

>  <r_qp_FOSA>  (5) 
276.82999999999998

>  <r_qp_IP(eV)>  (5) 
8.4079999999999995

>  <r_qp_Jm>  (5) 
0.0029060723272019699

>  <r_qp_PISA>  (5) 
341.72699999999998

>  <r_qp_PSA>  (5) 
53.847999999999999

>  <r_qp_PercentHumanOralAbsorption>  (5) 
92.144000000000005

>  <r_qp_QPPCaco>  (5) 
165.70099999999999

>  <r_qp_QPPMDCK>  (5) 
140.06899999999999

>  <r_qp_QPlogBB>  (5) 
0.318

>  <r_qp_QPlogHERG>  (5) 
-7.4870000000000001

>  <r_qp_QPlogKhsa>  (5) 
0.77200000000000002

>  <r_qp_QPlogKp>  (5) 
-4.6849999999999996

>  <r_qp_QPlogPC16>  (5) 
14.259

>  <r_qp_QPlogPo/w>  (5) 
4.351

>  <r_qp_QPlogPoct>  (5) 
21.373999999999999

>  <r_qp_QPlogPw>  (5) 
10.552

>  <r_qp_QPlogS>  (5) 
-3.4620000000000002

>  <r_qp_QPpolrz>  (5) 
45.177999999999997

>  <r_qp_SASA>  (5) 
716.68399999999997

>  <r_qp_SAamideO>  (5) 
0

>  <r_qp_SAfluorine>  (5) 
0

>  <r_qp_WPSA>  (5) 
37.978999999999999

>  <r_qp_accptHB>  (5) 
5.5

>  <r_qp_dip^2/V>  (5) 
0.044235299999999998

>  <r_qp_dipole>  (5) 
7.7149999999999999

>  <r_qp_donorHB>  (5) 
2

>  <r_qp_glob>  (5) 
0.82242119999999996

>  <r_qp_mol_MW>  (5) 
407.57299999999998

>  <r_qp_volume>  (5) 
1345.5050000000001

>  <r_sd_BIOSOLVEIT.INFINISEE\_FTREES\_SIMILARITY>  (5) 
0.90500000000000003

>  <r_sd_BIOSOLVEIT.LOGP>  (5) 
3.8858000000000001

>  <r_sd_BIOSOLVEIT.MOLECULAR\_WEIGHT>  (5) 
408.58600000000001

>  <r_sd_BIOSOLVEIT.TPSA>  (5) 
45.57

>  <i_epik_Tot_Q>  (5) 
1

>  <i_epik_Tot_abs_Q>  (5) 
1

>  <i_f3d_flags>  (5) 
0

>  <i_i_glide_confnum>  (5) 
8

>  <i_i_glide_lignum>  (5) 
1309

>  <i_i_glide_posenum>  (5) 
15

>  <i_i_glide_rotatable_bonds>  (5) 
10

>  <i_lp_mmshare_version>  (5) 
65135

>  <i_m_ct_format>  (5) 
2

>  <i_m_source_file_index>  (5) 
2847

>  <i_qp_#NandO>  (5) 
4

>  <i_qp_#acid>  (5) 
0

>  <i_qp_#amide>  (5) 
0

>  <i_qp_#amidine>  (5) 
0

>  <i_qp_#amine>  (5) 
2

>  <i_qp_#in34>  (5) 
0

>  <i_qp_#in56>  (5) 
17

>  <i_qp_#metab>  (5) 
7

>  <i_qp_#nonHatm>  (5) 
29

>  <i_qp_#noncon>  (5) 
0

>  <i_qp_#ringatoms>  (5) 
17

>  <i_qp_#rotor>  (5) 
9

>  <i_qp_#rtvFG>  (5) 
0

>  <i_qp_#stars>  (5) 
0

>  <i_qp_CNS>  (5) 
1

>  <i_qp_HumanOralAbsorption>  (5) 
3

>  <i_qp_RuleOfFive>  (5) 
0

>  <i_qp_RuleOfThree>  (5) 
1

>  <i_sd_BIOSOLVEIT.INFINISEE\_RESULT\_RANK>  (5) 
68642

>  <i_sd_version>  (5) 
0

>  <b_lp_Chiralities_Consistent>  (5) 
1

>  <b_sd_chiral_flag>  (5) 
0

>  <canonical_id>  (5) 
ATP-HTVS-D78134F4C173

>  <compound_code>  (5) 
91073

>  <title>  (5) 
rxn512b____EMOL509166____EMOL720738____EMOL2873214

>  <variant>  (5) 
91073-1

>  <source_file>  (5) 
运行/运行/ATP-VSW/ATP-VSW-DOCK_HTVS_1-001_lib/ATP-VSW-DOCK_HTVS_1-001_lib

>  <canonical_smiles>  (5) 
CC[C@@H](NC(=O)c1cc(NCc2cccc(C[NH+](C)C)c2)cs1)c1ccccc1

>  <scaffold>  (5) 
O=C(NCc1ccccc1)c1cc(NCc2ccccc2)cs1

>  <molecular_formula>  (5) 
C24H30N3OS+

>  <acquisition_id_v2>  (5) 
ATP-ACQ2-0005

>  <selection_arm_v2>  (5) 
local_structure_bridge

>  <priority_v2>  (5) 
P0

$$$$
ATP-ACQ2-0006
     RDKit          3D

 56 59  0  0  0  0  0  0  0  0999 V2000
  199.7134  185.5579  159.0680 Br  0  0  0  0  0  0  0  0  0  0  0  0
  198.5097  184.5885  157.8022 C   0  0  1  0  0  0  0  0  0  0  0  0
  197.1264  184.4847  158.4376 C   0  0  0  0  0  0  0  0  0  0  0  0
  196.5409  185.5790  159.1189 C   0  0  0  0  0  0  0  0  0  0  0  0
  195.2754  185.4496  159.7197 C   0  0  0  0  0  0  0  0  0  0  0  0
  194.5699  184.2369  159.6242 C   0  0  0  0  0  0  0  0  0  0  0  0
  195.1343  183.1474  158.9313 C   0  0  0  0  0  0  0  0  0  0  0  0
  196.4091  183.2711  158.3437 C   0  0  0  0  0  0  0  0  0  0  0  0
  198.4214  185.2818  156.4359 C   0  0  0  0  0  0  0  0  0  0  0  0
  198.4309  186.5116  156.3798 O   0  0  0  0  0  0  0  0  0  0  0  0
  198.3223  184.4848  155.3517 N   0  0  0  0  0  0  0  0  0  0  0  0
  198.2576  184.8766  153.9826 C   0  0  0  0  0  0  0  0  0  0  0  0
  197.6074  184.0374  153.0304 C   0  0  0  0  0  0  0  0  0  0  0  0
  196.9761  182.8419  153.4206 N   0  0  0  0  0  0  0  0  0  0  0  0
  197.5667  181.7516  154.0702 C   0  0  0  0  0  0  0  0  0  0  0  0
  196.7307  180.7710  154.6232 C   0  0  0  0  0  0  0  0  0  0  0  0
  197.2869  179.6582  155.2874 C   0  0  0  0  0  0  0  0  0  0  0  0
  198.6851  179.5179  155.4101 C   0  0  0  0  0  0  0  0  0  0  0  0
  199.1570  178.3744  156.0848 N   0  0  0  0  0  0  0  0  0  0  0  0
  200.5769  178.1207  156.3324 C   0  0  0  0  0  0  0  0  0  0  0  0
  200.9323  178.4238  157.7890 C   0  0  0  0  0  0  0  0  0  0  0  0
  200.3426  177.4416  158.6132 O   0  0  0  0  0  0  0  0  0  0  0  0
  199.5204  180.5032  154.8430 C   0  0  0  0  0  0  0  0  0  0  0  0
  198.9626  181.6067  154.1739 C   0  0  0  0  0  0  0  0  0  0  0  0
  197.5452  184.4533  151.6759 C   0  0  0  0  0  0  0  0  0  0  0  0
  198.1752  185.6704  151.2996 C   0  0  0  0  0  0  0  0  0  0  0  0
  198.8037  186.4107  152.2312 N   0  0  0  0  0  0  0  0  0  0  0  0
  198.8817  186.0647  153.5258 C   0  0  0  0  0  0  0  0  0  0  0  0
  198.1556  186.1065  149.9678 C   0  0  0  0  0  0  0  0  0  0  0  0
  197.4847  185.3529  148.9860 C   0  0  0  0  0  0  0  0  0  0  0  0
  196.8527  184.1463  149.3426 C   0  0  0  0  0  0  0  0  0  0  0  0
  196.8811  183.6962  150.6774 C   0  0  0  0  0  0  0  0  0  0  0  0
  198.9428  183.5913  157.6854 H   0  0  0  0  0  0  0  0  0  0  0  0
  197.0537  186.5253  159.1846 H   0  0  0  0  0  0  0  0  0  0  0  0
  194.8384  186.2874  160.2412 H   0  0  0  0  0  0  0  0  0  0  0  0
  193.5891  184.1493  160.0690 H   0  0  0  0  0  0  0  0  0  0  0  0
  194.5929  182.2132  158.8481 H   0  0  0  0  0  0  0  0  0  0  0  0
  196.8223  182.4220  157.8134 H   0  0  0  0  0  0  0  0  0  0  0  0
  198.1445  183.5019  155.5218 H   0  0  0  0  0  0  0  0  0  0  0  0
  196.0073  182.7328  153.1227 H   0  0  0  0  0  0  0  0  0  0  0  0
  195.6552  180.8696  154.5509 H   0  0  0  0  0  0  0  0  0  0  0  0
  196.6196  178.9169  155.7095 H   0  0  0  0  0  0  0  0  0  0  0  0
  198.4862  177.9444  156.7301 H   0  0  0  0  0  0  0  0  0  0  0  0
  200.8163  177.0819  156.0902 H   0  0  0  0  0  0  0  0  0  0  0  0
  201.2398  178.7173  155.7026 H   0  0  0  0  0  0  0  0  0  0  0  0
  202.0061  178.3438  157.9300 H   0  0  0  0  0  0  0  0  0  0  0  0
  200.6431  179.4267  158.0957 H   0  0  0  0  0  0  0  0  0  0  0  0
  199.4007  177.5036  158.5160 H   0  0  0  0  0  0  0  0  0  0  0  0
  200.5991  180.4619  154.9032 H   0  0  0  0  0  0  0  0  0  0  0  0
  199.6187  182.3440  153.7349 H   0  0  0  0  0  0  0  0  0  0  0  0
  199.4271  186.7566  154.1518 H   0  0  0  0  0  0  0  0  0  0  0  0
  198.6389  187.0325  149.7000 H   0  0  0  0  0  0  0  0  0  0  0  0
  197.4515  185.6932  147.9605 H   0  0  0  0  0  0  0  0  0  0  0  0
  196.3492  183.5703  148.5783 H   0  0  0  0  0  0  0  0  0  0  0  0
  196.3974  182.7592  150.9188 H   0  0  0  0  0  0  0  0  0  0  0  0
  199.2639  187.2696  151.9340 H   0  0  0  0  0  0  0  0  0  0  0  0
  1  2  1  0
  2  3  1  0
  2  9  1  0
  2 33  1  6
  3  4  2  0
  3  8  1  0
  4  5  1  0
  4 34  1  0
  5  6  2  0
  5 35  1  0
  6  7  1  0
  6 36  1  0
  7  8  2  0
  7 37  1  0
  8 38  1  0
  9 10  2  0
  9 11  1  0
 11 12  1  0
 11 39  1  0
 12 13  2  0
 12 28  1  0
 13 14  1  0
 13 25  1  0
 14 15  1  0
 14 40  1  0
 15 16  1  0
 15 24  2  0
 16 17  2  0
 16 41  1  0
 17 18  1  0
 17 42  1  0
 18 19  1  0
 18 23  2  0
 19 20  1  0
 19 43  1  0
 20 21  1  0
 20 44  1  0
 20 45  1  0
 21 22  1  0
 21 46  1  0
 21 47  1  0
 22 48  1  0
 23 24  1  0
 23 49  1  0
 24 50  1  0
 25 26  1  0
 25 32  2  0
 26 27  1  0
 26 29  2  0
 27 28  2  0
 27 56  1  0
 28 51  1  0
 29 30  1  0
 29 52  1  0
 30 31  2  0
 30 53  1  0
 31 32  1  0
 31 54  1  0
 32 55  1  0
M  CHG  1  27   1
M  END
>  <s_epik_cmdline>  (6) 
J2VwaWtfcHl0aG9uJywgJy1waCcsICc3LjAwMDAwMCcsICctcGh0JywgJzIuMDAwMDAwJywgJy1tcycsICcxNicsICctdG4nLCAnOCcsICctbWEnLCAnMjAwJywgJy1pbWFlJywgJzxpbmZpbGUubWFlPicsICctb21hZScsICc8b3V0ZmlsZS5tYWU+Jw==

>  <s_epik_input>  (6) 
W2NIXTFbY0hdW2NIXVtjSF1bY0hdYzFbQ0BIXShCcilDKD1PKVtOSF1jKFtjSF1uYyhjMjMpW2NIXVtjSF1bY0hdW2NIXTMpYzJbTkhdYzRbY0hdW2NIXWMoW2NIXVtjSF00KVtOSF1bQ0gyXVtDSDJdW09IXQ==

>  <s_i_glide_gridfile>  (6) 
ATP-Grid

>  <s_lp_Force_Field>  (6) 
OPLS_2005

>  <s_lp_Variant>  (6) 
rxn502b____EMOL535380____EMOL30488121____EMOL8314610-4

>  <s_lp_label>  (6) 
2493_sdstereoexpander_2_neutralizer_1_epik_2_stereoizer_1

>  <s_m_source_file>  (6) 
ATP-VSW-LIGPREP-003-in.maegz

>  <s_sd_BIOSOLVEIT.INFINISEE\_QUERY\_NAME>  (6) 
Ref-Lig

>  <s_sd_BIOSOLVEIT.INFINISEE\_QUERY\_SMILES>  (6) 
S(c1nc2c(cc1C[NH2+]Cc3ccc(cc3)C[NH+](C)C)cccc2)Cc4ccccc4

>  <s_sd_BIOSOLVEIT.INFINISEE\_REACTION\_NAME>  (6) 
rxn502b

>  <s_sd_BIOSOLVEIT.INFINISEE\_REAGENT1\_NAME>  (6) 
EMOL535380

>  <s_sd_BIOSOLVEIT.INFINISEE\_REAGENT1\_SMILES>  (6) 
BrC(c1ccccc1)C(=O)O

>  <s_sd_BIOSOLVEIT.INFINISEE\_REAGENT2\_NAME>  (6) 
EMOL30488121

>  <s_sd_BIOSOLVEIT.INFINISEE\_REAGENT2\_SMILES>  (6) 
Brc1c(N)cnc2c1cccc2

>  <s_sd_BIOSOLVEIT.INFINISEE\_REAGENT3\_NAME>  (6) 
EMOL8314610

>  <s_sd_BIOSOLVEIT.INFINISEE\_REAGENT3\_SMILES>  (6) 
OCCNc1ccc(N)cc1

>  <s_sd_BIOSOLVEIT.INFINISEE\_SPACE>  (6) 
eXplore_7tr_2022-12

>  <s_vsw_compound_code>  (6) 
79747

>  <s_vsw_variant>  (6) 
79747-4

>  <r_epik_Charging_Adjusted_Penalty>  (6) 
0.92913805223329704

>  <r_epik_Ionization_Penalty>  (6) 
0.47799999999999998

>  <r_epik_Ionization_Penalty_Charging>  (6) 
0.45119999999999999

>  <r_epik_Ionization_Penalty_Neutral>  (6) 
0.026800000000000001

>  <r_epik_State_Penalty>  (6) 
0.47799999999999998

>  <r_i_docking_score>  (6) 
-4.9084976723352698

>  <r_i_glide_ecoul>  (6) 
-11.091713905334499

>  <r_i_glide_eff_state_penalty>  (6) 
0.47799999999999998

>  <r_i_glide_einternal>  (6) 
8.7675380706787092

>  <r_i_glide_emodel>  (6) 
-63.742287169051501

>  <r_i_glide_energy>  (6) 
-48.980019569397001

>  <r_i_glide_erotb>  (6) 
0.67195920542512

>  <r_i_glide_esite>  (6) 
-0.14543806783416499

>  <r_i_glide_evdw>  (6) 
-37.8883056640625

>  <r_i_glide_gscore>  (6) 
-5.3864976723352704

>  <r_i_glide_hbond>  (6) 
-0.35316278884397201

>  <r_i_glide_ligand_efficiency>  (6) 
-0.15339055226047699

>  <r_i_glide_ligand_efficiency_ln>  (6) 
-1.0991464294290101

>  <r_i_glide_ligand_efficiency_sa>  (6) 
-0.48698464747794301

>  <r_i_glide_lipo>  (6) 
-1.9426058025793

>  <r_i_glide_metal>  (6) 
-0

>  <r_i_glide_rewards>  (6) 
-0.059077849499659801

>  <r_lp_Energy>  (6) 
42.310960999999999

>  <r_qp_ACxDN^.5/SA>  (6) 
0.018005799999999999

>  <r_qp_CIQPlogS>  (6) 
-7.5640000000000001

>  <r_qp_EA(eV)>  (6) 
1.089

>  <r_qp_FISA>  (6) 
118.169

>  <r_qp_FOSA>  (6) 
91.617999999999995

>  <r_qp_IP(eV)>  (6) 
7.7869999999999999

>  <r_qp_Jm>  (6) 
0.092115843390810595

>  <r_qp_PISA>  (6) 
504.42200000000003

>  <r_qp_PSA>  (6) 
88.063999999999993

>  <r_qp_PercentHumanOralAbsorption>  (6) 
100

>  <r_qp_QPPCaco>  (6) 
750.42499999999995

>  <r_qp_QPPMDCK>  (6) 
529.52700000000004

>  <r_qp_QPlogBB>  (6) 
-1.147

>  <r_qp_QPlogHERG>  (6) 
-7.2309999999999999

>  <r_qp_QPlogKhsa>  (6) 
0.42399999999999999

>  <r_qp_QPlogKp>  (6) 
-1.056

>  <r_qp_QPlogPC16>  (6) 
16.390999999999998

>  <r_qp_QPlogPo/w>  (6) 
4.3710000000000004

>  <r_qp_QPlogPoct>  (6) 
26.206

>  <r_qp_QPlogPw>  (6) 
16.228000000000002

>  <r_qp_QPlogS>  (6) 
-5.6710000000000003

>  <r_qp_QPpolrz>  (6) 
47.188000000000002

>  <r_qp_SASA>  (6) 
744.20399999999995

>  <r_qp_SAamideO>  (6) 
0

>  <r_qp_SAfluorine>  (6) 
0

>  <r_qp_WPSA>  (6) 
29.995999999999999

>  <r_qp_accptHB>  (6) 
6.7000000000000002

>  <r_qp_dip^2/V>  (6) 
0.056768600000000002

>  <r_qp_dipole>  (6) 
8.7769999999999992

>  <r_qp_donorHB>  (6) 
4

>  <r_qp_glob>  (6) 
0.79647800000000002

>  <r_qp_mol_MW>  (6) 
491.38600000000002

>  <r_qp_volume>  (6) 
1356.9100000000001

>  <r_sd_BIOSOLVEIT.INFINISEE\_FTREES\_SIMILARITY>  (6) 
0.91400000000000003

>  <r_sd_BIOSOLVEIT.LOGP>  (6) 
5.4573

>  <r_sd_BIOSOLVEIT.MOLECULAR\_WEIGHT>  (6) 
491.387

>  <r_sd_BIOSOLVEIT.TPSA>  (6) 
86.280000000000001

>  <i_epik_Tot_Q>  (6) 
1

>  <i_epik_Tot_abs_Q>  (6) 
1

>  <i_f3d_flags>  (6) 
0

>  <i_i_glide_confnum>  (6) 
10

>  <i_i_glide_lignum>  (6) 
1078

>  <i_i_glide_posenum>  (6) 
4

>  <i_i_glide_rotatable_bonds>  (6) 
10

>  <i_lp_mmshare_version>  (6) 
65135

>  <i_m_ct_format>  (6) 
2

>  <i_m_source_file_index>  (6) 
2493

>  <i_qp_#NandO>  (6) 
6

>  <i_qp_#acid>  (6) 
0

>  <i_qp_#amide>  (6) 
0

>  <i_qp_#amidine>  (6) 
0

>  <i_qp_#amine>  (6) 
0

>  <i_qp_#in34>  (6) 
0

>  <i_qp_#in56>  (6) 
22

>  <i_qp_#metab>  (6) 
8

>  <i_qp_#nonHatm>  (6) 
32

>  <i_qp_#noncon>  (6) 
0

>  <i_qp_#ringatoms>  (6) 
22

>  <i_qp_#rotor>  (6) 
9

>  <i_qp_#rtvFG>  (6) 
1

>  <i_qp_#stars>  (6) 
2

>  <i_qp_CNS>  (6) 
-2

>  <i_qp_HumanOralAbsorption>  (6) 
3

>  <i_qp_RuleOfFive>  (6) 
0

>  <i_qp_RuleOfThree>  (6) 
1

>  <i_sd_BIOSOLVEIT.INFINISEE\_RESULT\_RANK>  (6) 
29862

>  <i_sd_version>  (6) 
0

>  <b_lp_Chiralities_Consistent>  (6) 
1

>  <b_sd_chiral_flag>  (6) 
0

>  <canonical_id>  (6) 
ATP-HTVS-77ED8C900CC0

>  <compound_code>  (6) 
79747

>  <title>  (6) 
rxn502b____EMOL535380____EMOL30488121____EMOL8314610

>  <variant>  (6) 
79747-4

>  <source_file>  (6) 
运行/运行/ATP-VSW/ATP-VSW-DOCK_HTVS_1-003_lib/ATP-VSW-DOCK_HTVS_1-003_lib.mae

>  <canonical_smiles>  (6) 
O=C(Nc1c[nH+]c2ccccc2c1Nc1ccc(NCCO)cc1)[C@@H](Br)c1ccccc1

>  <scaffold>  (6) 
O=C(Cc1ccccc1)Nc1c[nH+]c2ccccc2c1Nc1ccccc1

>  <molecular_formula>  (6) 
C25H24BrN4O2+

>  <acquisition_id_v2>  (6) 
ATP-ACQ2-0006

>  <selection_arm_v2>  (6) 
scaffold_score_exploration

>  <priority_v2>  (6) 
P0

$$$$
ATP-ACQ2-0007
     RDKit          3D

 55 58  0  0  0  0  0  0  0  0999 V2000
  193.1737  183.8352  159.2803 F   0  0  0  0  0  0  0  0  0  0  0  0
  194.3847  184.3889  159.5336 C   0  0  0  0  0  0  0  0  0  0  0  0
  195.5654  183.7997  159.0135 C   0  0  0  0  0  0  0  0  0  0  0  0
  196.8096  184.4244  159.2768 C   0  0  0  0  0  0  0  0  0  0  0  0
  196.8690  185.6197  160.0201 C   0  0  0  0  0  0  0  0  0  0  0  0
  195.6951  186.1896  160.5389 C   0  0  0  0  0  0  0  0  0  0  0  0
  195.7565  187.3192  161.2825 F   0  0  0  0  0  0  0  0  0  0  0  0
  194.4594  185.5650  160.3094 C   0  0  0  0  0  0  0  0  0  0  0  0
  195.4678  182.5161  158.1729 C   0  0  2  0  0  0  0  0  0  0  0  0
  194.9741  181.4382  158.9415 O   0  0  0  0  0  0  0  0  0  0  0  0
  196.8276  182.1000  157.5785 C   0  0  0  0  0  0  0  0  0  0  0  0
  196.7228  181.0797  156.5247 N   0  0  0  0  0  0  0  0  0  0  0  0
  198.0214  180.8118  155.8694 C   0  0  0  0  0  0  0  0  0  0  0  0
  197.8018  180.2503  154.5001 C   0  0  0  0  0  0  0  0  0  0  0  0
  198.4626  179.1767  153.8274 C   0  0  0  0  0  0  0  0  0  0  0  0
  198.0374  179.0457  152.5733 N   0  0  0  0  0  0  0  0  0  0  0  0
  197.1147  180.0164  152.4025 N   0  0  0  0  0  0  0  0  0  0  0  0
  196.9321  180.7411  153.5568 C   0  0  0  0  0  0  0  0  0  0  0  0
  196.4821  180.2130  151.1039 C   0  0  0  0  0  0  0  0  0  0  0  0
  196.9373  181.5242  150.4857 C   0  0  0  0  0  0  0  0  0  0  0  0
  196.3627  182.7460  150.8997 C   0  0  0  0  0  0  0  0  0  0  0  0
  196.7862  183.9585  150.3217 C   0  0  0  0  0  0  0  0  0  0  0  0
  197.7858  183.9581  149.3313 C   0  0  0  0  0  0  0  0  0  0  0  0
  198.3671  182.7438  148.9199 C   0  0  0  0  0  0  0  0  0  0  0  0
  197.9464  181.5292  149.4977 C   0  0  0  0  0  0  0  0  0  0  0  0
  199.5079  178.2550  154.3127 C   0  0  0  0  0  0  0  0  0  0  0  0
  200.4792  177.7388  153.4176 C   0  0  0  0  0  0  0  0  0  0  0  0
  201.4806  176.8516  153.8757 C   0  0  0  0  0  0  0  0  0  0  0  0
  201.5364  176.4968  155.2383 C   0  0  0  0  0  0  0  0  0  0  0  0
  200.5716  177.0019  156.1313 C   0  0  0  0  0  0  0  0  0  0  0  0
  199.5455  177.8527  155.6671 C   0  0  0  0  0  0  0  0  0  0  0  0
  196.3354  180.2183  156.9111 H   0  0  0  0  0  0  0  0  0  0  0  0
  197.7516  184.0313  158.9216 H   0  0  0  0  0  0  0  0  0  0  0  0
  197.8258  186.0869  160.1867 H   0  0  0  0  0  0  0  0  0  0  0  0
  193.5562  186.0039  160.7002 H   0  0  0  0  0  0  0  0  0  0  0  0
  194.7700  182.7129  157.3534 H   0  0  0  0  0  0  0  0  0  0  0  0
  195.1232  180.5979  158.5231 H   0  0  0  0  0  0  0  0  0  0  0  0
  197.2931  182.9623  157.0967 H   0  0  0  0  0  0  0  0  0  0  0  0
  197.5012  181.7489  158.3619 H   0  0  0  0  0  0  0  0  0  0  0  0
  198.6042  181.7345  155.7767 H   0  0  0  0  0  0  0  0  0  0  0  0
  198.5841  180.1532  156.5535 H   0  0  0  0  0  0  0  0  0  0  0  0
  196.2298  181.5604  153.5889 H   0  0  0  0  0  0  0  0  0  0  0  0
  196.7236  179.3750  150.4470 H   0  0  0  0  0  0  0  0  0  0  0  0
  195.4021  180.2197  151.2338 H   0  0  0  0  0  0  0  0  0  0  0  0
  195.6015  182.7637  151.6660 H   0  0  0  0  0  0  0  0  0  0  0  0
  196.3474  184.8909  150.6404 H   0  0  0  0  0  0  0  0  0  0  0  0
  198.1063  184.8889  148.8877 H   0  0  0  0  0  0  0  0  0  0  0  0
  199.1373  182.7430  148.1618 H   0  0  0  0  0  0  0  0  0  0  0  0
  198.4046  180.6029  149.1801 H   0  0  0  0  0  0  0  0  0  0  0  0
  200.4522  177.9971  152.3665 H   0  0  0  0  0  0  0  0  0  0  0  0
  202.2017  176.4438  153.1752 H   0  0  0  0  0  0  0  0  0  0  0  0
  202.3041  175.8211  155.5951 H   0  0  0  0  0  0  0  0  0  0  0  0
  200.6007  176.7302  157.1730 H   0  0  0  0  0  0  0  0  0  0  0  0
  198.7834  178.1812  156.3672 H   0  0  0  0  0  0  0  0  0  0  0  0
  196.0670  181.4474  155.8456 H   0  0  0  0  0  0  0  0  0  0  0  0
  1  2  1  0
  2  3  2  0
  2  8  1  0
  3  4  1  0
  3  9  1  0
  4  5  2  0
  4 33  1  0
  5  6  1  0
  5 34  1  0
  6  7  1  0
  6  8  2  0
  8 35  1  0
  9 10  1  0
  9 11  1  0
  9 36  1  6
 10 37  1  0
 11 12  1  0
 11 38  1  0
 11 39  1  0
 12 13  1  0
 12 32  1  0
 12 55  1  0
 13 14  1  0
 13 40  1  0
 13 41  1  0
 14 15  1  0
 14 18  2  0
 15 16  2  0
 15 26  1  0
 16 17  1  0
 17 18  1  0
 17 19  1  0
 18 42  1  0
 19 20  1  0
 19 43  1  0
 19 44  1  0
 20 21  2  0
 20 25  1  0
 21 22  1  0
 21 45  1  0
 22 23  2  0
 22 46  1  0
 23 24  1  0
 23 47  1  0
 24 25  2  0
 24 48  1  0
 25 49  1  0
 26 27  2  0
 26 31  1  0
 27 28  1  0
 27 50  1  0
 28 29  2  0
 28 51  1  0
 29 30  1  0
 29 52  1  0
 30 31  2  0
 30 53  1  0
 31 54  1  0
M  CHG  1  12   1
M  END
>  <s_epik_cmdline>  (7) 
J2VwaWtfcHl0aG9uJywgJy1waCcsICc3LjAwMDAwMCcsICctcGh0JywgJzIuMDAwMDAwJywgJy1tcycsICcxNicsICctdG4nLCAnOCcsICctbWEnLCAnMjAwJywgJy1pbWFlJywgJzxpbmZpbGUubWFlPicsICctb21hZScsICc8b3V0ZmlsZS5tYWU+Jw==

>  <s_epik_input>  (7) 
RmMoW2NIXTEpW2NIXVtjSF1jKGMxRilbQ0BIXShbT0hdKVtDSDJdW05IXVtDSDJdYzJjKC1jM1tjSF1bY0hdW2NIXVtjSF1bY0hdMylubihbY0hdMilbQ0gyXWM0W2NIXVtjSF1bY0hdW2NIXVtjSF00

>  <s_i_glide_gridfile>  (7) 
ATP-Grid

>  <s_lp_Force_Field>  (7) 
OPLS_2005

>  <s_lp_Variant>  (7) 
m_270004bbb____16500566____7548060-2

>  <s_lp_label>  (7) 
2072_sdstereoexpander_2_neutralizer_1_epik_1_stereoizer_1

>  <s_m_source_file>  (7) 
ATP-VSW-LIGPREP-001-in.maegz

>  <s_sd_BIOSOLVEIT.INFINISEE\_QUERY\_NAME>  (7) 
Ref-Lig

>  <s_sd_BIOSOLVEIT.INFINISEE\_QUERY\_SMILES>  (7) 
S(c1nc2c(cc1C[NH2+]Cc3ccc(cc3)C[NH+](C)C)cccc2)Cc4ccccc4

>  <s_sd_BIOSOLVEIT.INFINISEE\_REACTION\_NAME>  (7) 
m_270004bbb

>  <s_sd_BIOSOLVEIT.INFINISEE\_REAGENT1\_SMILES>  (7) 
[R1*]NCC(O)c1c(F)cc(F)cc1

>  <s_sd_BIOSOLVEIT.INFINISEE\_REAGENT2\_SMILES>  (7) 
[R1*]CC=1C(=NN(C1)Cc2ccccc2)c3ccccc3

>  <s_sd_BIOSOLVEIT.INFINISEE\_SPACE>  (7) 
REALSpace_44bn_2023-08

>  <s_vsw_compound_code>  (7) 
66273

>  <s_vsw_variant>  (7) 
66273-2

>  <r_epik_Charging_Adjusted_Penalty>  (7) 
0.14210174952166199

>  <r_epik_Ionization_Penalty>  (7) 
0.071099999999999997

>  <r_epik_Ionization_Penalty_Charging>  (7) 
0.071099999999999997

>  <r_epik_Ionization_Penalty_Neutral>  (7) 
0

>  <r_epik_State_Penalty>  (7) 
0.071099999999999997

>  <r_i_docking_score>  (7) 
-6.7221722658838203

>  <r_i_glide_ecoul>  (7) 
-15.335029602050801

>  <r_i_glide_eff_state_penalty>  (7) 
0.071099999999999997

>  <r_i_glide_einternal>  (7) 
6.1641049385070801

>  <r_i_glide_emodel>  (7) 
-78.007283716339998

>  <r_i_glide_energy>  (7) 
-50.154636383056598

>  <r_i_glide_erotb>  (7) 
0.78365562477255302

>  <r_i_glide_esite>  (7) 
-0.128389902488562

>  <r_i_glide_evdw>  (7) 
-34.819606781005902

>  <r_i_glide_gscore>  (7) 
-6.7932722658838198

>  <r_i_glide_hbond>  (7) 
-0.35999999999999999

>  <r_i_glide_ligand_efficiency>  (7) 
-0.21684426664141301

>  <r_i_glide_ligand_efficiency_ln>  (7) 
-1.5160558557959001

>  <r_i_glide_ligand_efficiency_sa>  (7) 
-0.681190383029604

>  <r_i_glide_lipo>  (7) 
-1.9347941619768101

>  <r_i_glide_metal>  (7) 
-0

>  <r_i_glide_rewards>  (7) 
-1.11250904683309

>  <r_lp_Energy>  (7) 
18.847131000000001

>  <r_lp_tautomer_probability>  (7) 
1

>  <r_qp_ACxDN^.5/SA>  (7) 
0.0098610999999999994

>  <r_qp_CIQPlogS>  (7) 
-6.1079999999999997

>  <r_qp_EA(eV)>  (7) 
0.58799999999999997

>  <r_qp_FISA>  (7) 
55.247

>  <r_qp_FOSA>  (7) 
113.124

>  <r_qp_IP(eV)>  (7) 
8.7300000000000004

>  <r_qp_Jm>  (7) 
0.088994429101352607

>  <r_qp_PISA>  (7) 
450.80500000000001

>  <r_qp_PSA>  (7) 
48.171999999999997

>  <r_qp_PercentHumanOralAbsorption>  (7) 
100

>  <r_qp_QPPCaco>  (7) 
739.42200000000003

>  <r_qp_QPPMDCK>  (7) 
788.99599999999998

>  <r_qp_QPlogBB>  (7) 
0.097000000000000003

>  <r_qp_QPlogHERG>  (7) 
-6.9359999999999999

>  <r_qp_QPlogKhsa>  (7) 
0.78200000000000003

>  <r_qp_QPlogKp>  (7) 
-2.2440000000000002

>  <r_qp_QPlogPC16>  (7) 
13.715999999999999

>  <r_qp_QPlogPo/w>  (7) 
4.992

>  <r_qp_QPlogPoct>  (7) 
20.597999999999999

>  <r_qp_QPlogPw>  (7) 
10.597

>  <r_qp_QPlogS>  (7) 
-4.4290000000000003

>  <r_qp_QPpolrz>  (7) 
44.055

>  <r_qp_SASA>  (7) 
674.04300000000001

>  <r_qp_SAamideO>  (7) 
0

>  <r_qp_SAfluorine>  (7) 
54.866

>  <r_qp_WPSA>  (7) 
54.866

>  <r_qp_accptHB>  (7) 
4.7000000000000002

>  <r_qp_dip^2/V>  (7) 
0.023676699999999998

>  <r_qp_dipole>  (7) 
5.4950000000000001

>  <r_qp_donorHB>  (7) 
2

>  <r_qp_glob>  (7) 
0.84379780000000004

>  <r_qp_mol_MW>  (7) 
419.47300000000001

>  <r_qp_volume>  (7) 
1275.385

>  <r_sd_BIOSOLVEIT.INFINISEE\_FTREES\_SIMILARITY>  (7) 
0.90100000000000002

>  <r_sd_BIOSOLVEIT.LOGP>  (7) 
3.6736

>  <r_sd_BIOSOLVEIT.MOLECULAR\_WEIGHT>  (7) 
420.48099999999999

>  <r_sd_BIOSOLVEIT.TPSA>  (7) 
54.659999999999997

>  <i_epik_Tot_Q>  (7) 
1

>  <i_epik_Tot_abs_Q>  (7) 
1

>  <i_f3d_flags>  (7) 
0

>  <i_i_glide_confnum>  (7) 
7

>  <i_i_glide_lignum>  (7) 
645

>  <i_i_glide_posenum>  (7) 
11

>  <i_i_glide_rotatable_bonds>  (7) 
9

>  <i_lp_mmshare_version>  (7) 
65135

>  <i_m_ct_format>  (7) 
2

>  <i_m_source_file_index>  (7) 
2072

>  <i_qp_#NandO>  (7) 
4

>  <i_qp_#acid>  (7) 
0

>  <i_qp_#amide>  (7) 
0

>  <i_qp_#amidine>  (7) 
0

>  <i_qp_#amine>  (7) 
1

>  <i_qp_#in34>  (7) 
0

>  <i_qp_#in56>  (7) 
23

>  <i_qp_#metab>  (7) 
4

>  <i_qp_#nonHatm>  (7) 
31

>  <i_qp_#noncon>  (7) 
0

>  <i_qp_#ringatoms>  (7) 
23

>  <i_qp_#rotor>  (7) 
8

>  <i_qp_#rtvFG>  (7) 
0

>  <i_qp_#stars>  (7) 
1

>  <i_qp_CNS>  (7) 
1

>  <i_qp_HumanOralAbsorption>  (7) 
3

>  <i_qp_RuleOfFive>  (7) 
0

>  <i_qp_RuleOfThree>  (7) 
0

>  <i_sd_BIOSOLVEIT.INFINISEE\_REAGENT1\_NAME>  (7) 
16500566

>  <i_sd_BIOSOLVEIT.INFINISEE\_REAGENT2\_NAME>  (7) 
7548060

>  <i_sd_BIOSOLVEIT.INFINISEE\_RESULT\_RANK>  (7) 
95448

>  <i_sd_version>  (7) 
0

>  <b_lp_Chiralities_Consistent>  (7) 
1

>  <b_sd_chiral_flag>  (7) 
0

>  <canonical_id>  (7) 
ATP-HTVS-D6043925B579

>  <compound_code>  (7) 
66273

>  <title>  (7) 
m_270004bbb____16500566____7548060

>  <variant>  (7) 
66273-2

>  <source_file>  (7) 
运行/运行/ATP-VSW/ATP-VSW-DOCK_HTVS_1-001_lib/ATP-VSW-DOCK_HTVS_1-001_lib

>  <canonical_smiles>  (7) 
O[C@H](C[NH2+]Cc1cn(Cc2ccccc2)nc1-c1ccccc1)c1ccc(F)cc1F

>  <scaffold>  (7) 
c1ccc(CC[NH2+]Cc2cn(Cc3ccccc3)nc2-c2ccccc2)cc1

>  <molecular_formula>  (7) 
C25H24F2N3O+

>  <acquisition_id_v2>  (7) 
ATP-ACQ2-0007

>  <selection_arm_v2>  (7) 
exploitation

>  <priority_v2>  (7) 
P0

$$$$
ATP-ACQ2-0008
     RDKit          3D

 65 67  0  0  0  0  0  0  0  0999 V2000
  198.2033  178.7324  149.8318 O   0  0  0  0  0  0  0  0  0  0  0  0
  198.1110  179.0762  151.1539 C   0  0  0  0  0  0  0  0  0  0  0  0
  199.0996  178.6267  152.0561 C   0  0  0  0  0  0  0  0  0  0  0  0
  200.1373  177.8738  151.5410 O   0  0  0  0  0  0  0  0  0  0  0  0
  201.1481  177.4211  152.4342 C   0  0  0  0  0  0  0  0  0  0  0  0
  198.9747  178.9662  153.4247 C   0  0  0  0  0  0  0  0  0  0  0  0
  197.8774  179.7201  153.8819 C   0  0  0  0  0  0  0  0  0  0  0  0
  196.8912  180.1576  152.9739 C   0  0  0  0  0  0  0  0  0  0  0  0
  197.0018  179.8234  151.6123 C   0  0  0  0  0  0  0  0  0  0  0  0
  196.0336  180.2205  150.7368 O   0  0  0  0  0  0  0  0  0  0  0  0
  197.7552  180.0278  155.3525 C   0  0  0  0  0  0  0  0  0  0  0  0
  198.6486  181.1463  155.7206 N   0  0  0  0  0  0  0  0  0  0  0  0
  198.7218  181.3944  157.1677 C   0  0  0  0  0  0  0  0  0  0  0  0
  198.1243  182.7606  157.5989 C   0  0  2  0  0  0  0  0  0  0  0  0
  199.2017  183.7782  157.9277 C   0  0  0  0  0  0  0  0  0  0  0  0
  199.3786  184.9131  157.0981 C   0  0  0  0  0  0  0  0  0  0  0  0
  200.3600  185.8742  157.4090 C   0  0  0  0  0  0  0  0  0  0  0  0
  201.1682  185.7111  158.5499 C   0  0  0  0  0  0  0  0  0  0  0  0
  200.9918  184.5886  159.3840 C   0  0  0  0  0  0  0  0  0  0  0  0
  200.0108  183.6273  159.0701 C   0  0  0  0  0  0  0  0  0  0  0  0
  197.0875  182.6477  158.7426 C   0  0  0  0  0  0  0  0  0  0  0  0
  195.9626  181.7372  158.4042 N   0  0  0  0  0  0  0  0  0  0  0  0
  195.0198  181.4790  159.4865 C   0  0  0  0  0  0  0  0  0  0  0  0
  195.1965  182.1536  157.2280 C   0  0  0  0  0  0  0  0  0  0  0  0
  198.6610  179.7853  148.9983 C   0  0  0  0  0  0  0  0  0  0  0  0
  198.4599  179.4836  147.5279 C   0  0  0  0  0  0  0  0  0  0  0  0
  197.5470  178.4841  147.1120 C   0  0  0  0  0  0  0  0  0  0  0  0
  197.3506  178.2452  145.7407 C   0  0  0  0  0  0  0  0  0  0  0  0
  198.0342  179.0166  144.7852 C   0  0  0  0  0  0  0  0  0  0  0  0
  198.9498  180.0065  145.1925 C   0  0  0  0  0  0  0  0  0  0  0  0
  199.1506  180.2430  146.5639 C   0  0  0  0  0  0  0  0  0  0  0  0
  199.5768  180.9176  155.3885 H   0  0  0  0  0  0  0  0  0  0  0  0
  201.9035  176.8666  151.8766 H   0  0  0  0  0  0  0  0  0  0  0  0
  200.7410  176.7491  153.1926 H   0  0  0  0  0  0  0  0  0  0  0  0
  201.6540  178.2551  152.9251 H   0  0  0  0  0  0  0  0  0  0  0  0
  199.7018  178.6268  154.1496 H   0  0  0  0  0  0  0  0  0  0  0  0
  196.0426  180.7354  153.3090 H   0  0  0  0  0  0  0  0  0  0  0  0
  196.2731  179.9984  149.8510 H   0  0  0  0  0  0  0  0  0  0  0  0
  196.7198  180.2662  155.5869 H   0  0  0  0  0  0  0  0  0  0  0  0
  197.9929  179.1251  155.9217 H   0  0  0  0  0  0  0  0  0  0  0  0
  198.2128  180.5588  157.6675 H   0  0  0  0  0  0  0  0  0  0  0  0
  199.7614  181.2997  157.4748 H   0  0  0  0  0  0  0  0  0  0  0  0
  197.6305  183.2171  156.7465 H   0  0  0  0  0  0  0  0  0  0  0  0
  198.7630  185.0653  156.2247 H   0  0  0  0  0  0  0  0  0  0  0  0
  200.4909  186.7388  156.7691 H   0  0  0  0  0  0  0  0  0  0  0  0
  201.9236  186.4476  158.7847 H   0  0  0  0  0  0  0  0  0  0  0  0
  201.6120  184.4656  160.2627 H   0  0  0  0  0  0  0  0  0  0  0  0
  199.8910  182.7759  159.7244 H   0  0  0  0  0  0  0  0  0  0  0  0
  197.5642  182.2733  159.6466 H   0  0  0  0  0  0  0  0  0  0  0  0
  196.6870  183.6272  158.9942 H   0  0  0  0  0  0  0  0  0  0  0  0
  194.5715  182.4149  159.8136 H   0  0  0  0  0  0  0  0  0  0  0  0
  195.5159  180.9503  160.2811 H   0  0  0  0  0  0  0  0  0  0  0  0
  194.2236  180.8057  159.1606 H   0  0  0  0  0  0  0  0  0  0  0  0
  194.7481  183.1283  157.3963 H   0  0  0  0  0  0  0  0  0  0  0  0
  194.4168  181.4188  157.0370 H   0  0  0  0  0  0  0  0  0  0  0  0
  195.7840  182.1875  156.3146 H   0  0  0  0  0  0  0  0  0  0  0  0
  198.1431  180.7238  149.2064 H   0  0  0  0  0  0  0  0  0  0  0  0
  199.7221  179.9577  149.1906 H   0  0  0  0  0  0  0  0  0  0  0  0
  196.9877  177.9040  147.8288 H   0  0  0  0  0  0  0  0  0  0  0  0
  196.6563  177.4784  145.4291 H   0  0  0  0  0  0  0  0  0  0  0  0
  197.8905  178.8258  143.7346 H   0  0  0  0  0  0  0  0  0  0  0  0
  199.4879  180.5722  144.4477 H   0  0  0  0  0  0  0  0  0  0  0  0
  199.8427  181.0181  146.8703 H   0  0  0  0  0  0  0  0  0  0  0  0
  196.2956  180.8132  158.1864 H   0  0  0  0  0  0  0  0  0  0  0  0
  198.3577  181.9822  155.2393 H   0  0  0  0  0  0  0  0  0  0  0  0
  1  2  1  0
  1 25  1  0
  2  3  2  0
  2  9  1  0
  3  4  1  0
  3  6  1  0
  4  5  1  0
  5 33  1  0
  5 34  1  0
  5 35  1  0
  6  7  2  0
  6 36  1  0
  7  8  1  0
  7 11  1  0
  8  9  2  0
  8 37  1  0
  9 10  1  0
 10 38  1  0
 11 12  1  0
 11 39  1  0
 11 40  1  0
 12 13  1  0
 12 32  1  0
 12 65  1  0
 13 14  1  0
 13 41  1  0
 13 42  1  0
 14 15  1  0
 14 21  1  0
 14 43  1  6
 15 16  2  0
 15 20  1  0
 16 17  1  0
 16 44  1  0
 17 18  2  0
 17 45  1  0
 18 19  1  0
 18 46  1  0
 19 20  2  0
 19 47  1  0
 20 48  1  0
 21 22  1  0
 21 49  1  0
 21 50  1  0
 22 23  1  0
 22 24  1  0
 22 64  1  0
 23 51  1  0
 23 52  1  0
 23 53  1  0
 24 54  1  0
 24 55  1  0
 24 56  1  0
 25 26  1  0
 25 57  1  0
 25 58  1  0
 26 27  2  0
 26 31  1  0
 27 28  1  0
 27 59  1  0
 28 29  2  0
 28 60  1  0
 29 30  1  0
 29 61  1  0
 30 31  2  0
 30 62  1  0
 31 63  1  0
M  CHG  2  12   1  22   1
M  END
>  <s_epik_cmdline>  (8) 
J2VwaWtfcHl0aG9uJywgJy1waCcsICc3LjAwMDAwMCcsICctcGh0JywgJzIuMDAwMDAwJywgJy1tcycsICcxNicsICctdG4nLCAnOCcsICctbWEnLCAnMjAwJywgJy1pbWFlJywgJzxpbmZpbGUubWFlPicsICctb21hZScsICc8b3V0ZmlsZS5tYWU+Jw==

>  <s_epik_input>  (8) 
W2NIXTFbY0hdW2NIXVtjSF1bY0hdYzFbQ0gyXU9jMmMoT1tDSDNdKVtjSF1jKFtjSF1jMltPSF0pW0NIMl1bTkhdW0NIMl1bQ0BASF0oW0NIMl1OKFtDSDNdKVtDSDNdKWMzW2NIXVtjSF1bY0hdW2NIXVtjSF0z

>  <s_i_glide_gridfile>  (8) 
ATP-Grid

>  <s_lp_Force_Field>  (8) 
OPLS_2005

>  <s_lp_Variant>  (8) 
m_270004bbb____23846038____24720040-2

>  <s_lp_label>  (8) 
1392_sdstereoexpander_2_neutralizer_1_epik_1_stereoizer_1

>  <s_m_source_file>  (8) 
ATP-VSW-LIGPREP-003-in.maegz

>  <s_sd_BIOSOLVEIT.INFINISEE\_QUERY\_NAME>  (8) 
Ref-Lig

>  <s_sd_BIOSOLVEIT.INFINISEE\_QUERY\_SMILES>  (8) 
S(c1nc2c(cc1C[NH2+]Cc3ccc(cc3)C[NH+](C)C)cccc2)Cc4ccccc4

>  <s_sd_BIOSOLVEIT.INFINISEE\_REACTION\_NAME>  (8) 
m_270004bbb

>  <s_sd_BIOSOLVEIT.INFINISEE\_REAGENT1\_SMILES>  (8) 
[R1*]NCC(c1ccccc1)CN(C)C

>  <s_sd_BIOSOLVEIT.INFINISEE\_REAGENT2\_SMILES>  (8) 
[R1*]Cc1cc(OC)c(OCc2ccccc2)c(O)c1

>  <s_sd_BIOSOLVEIT.INFINISEE\_SPACE>  (8) 
REALSpace_44bn_2023-08

>  <s_vsw_compound_code>  (8) 
44515

>  <s_vsw_variant>  (8) 
44515-2

>  <r_epik_Charging_Adjusted_Penalty>  (8) 
0.256652342076165

>  <r_epik_Ionization_Penalty>  (8) 
0.1346

>  <r_epik_Ionization_Penalty_Charging>  (8) 
0.1303

>  <r_epik_Ionization_Penalty_Neutral>  (8) 
0.0043

>  <r_epik_State_Penalty>  (8) 
0.1263

>  <r_i_docking_score>  (8) 
-3.6833127918706401

>  <r_i_glide_ecoul>  (8) 
-11.6913795471191

>  <r_i_glide_eff_state_penalty>  (8) 
0.1263

>  <r_i_glide_einternal>  (8) 
10.402651786804199

>  <r_i_glide_emodel>  (8) 
-40.227977949585302

>  <r_i_glide_energy>  (8) 
-30.9432163238525

>  <r_i_glide_erotb>  (8) 
0.887629996993056

>  <r_i_glide_esite>  (8) 
-0.125031042327065

>  <r_i_glide_evdw>  (8) 
-19.251836776733398

>  <r_i_glide_gscore>  (8) 
-3.8096127918706402

>  <r_i_glide_hbond>  (8) 
-0.162600992534948

>  <r_i_glide_ligand_efficiency>  (8) 
-0.118816541673246

>  <r_i_glide_ligand_efficiency_ln>  (8) 
-0.83069991454752601

>  <r_i_glide_ligand_efficiency_sa>  (8) 
-0.373247984769149

>  <r_i_glide_lipo>  (8) 
-0.71531034673350102

>  <r_i_glide_metal>  (8) 
-0

>  <r_i_glide_rewards>  (8) 
-0.97800163636363502

>  <r_lp_Energy>  (8) 
43.467818000000001

>  <r_lp_tautomer_probability>  (8) 
0.99999999996300004

>  <r_qp_ACxDN^.5/SA>  (8) 
0.0100471

>  <r_qp_CIQPlogS>  (8) 
-4.3819999999999997

>  <r_qp_EA(eV)>  (8) 
0.17499999999999999

>  <r_qp_FISA>  (8) 
49.006999999999998

>  <r_qp_FOSA>  (8) 
338.44

>  <r_qp_IP(eV)>  (8) 
9.0289999999999999

>  <r_qp_Jm>  (8) 
0.0023009852817455901

>  <r_qp_PISA>  (8) 
421.91399999999999

>  <r_qp_PSA>  (8) 
53.009

>  <r_qp_PercentHumanOralAbsorption>  (8) 
100

>  <r_qp_QPPCaco>  (8) 
211.33199999999999

>  <r_qp_QPPMDCK>  (8) 
112.84399999999999

>  <r_qp_QPlogBB>  (8) 
0.083000000000000004

>  <r_qp_QPlogHERG>  (8) 
-8.7560000000000002

>  <r_qp_QPlogKhsa>  (8) 
0.86399999999999999

>  <r_qp_QPlogKp>  (8) 
-3.9100000000000001

>  <r_qp_QPlogPC16>  (8) 
15.731999999999999

>  <r_qp_QPlogPo/w>  (8) 
4.9409999999999998

>  <r_qp_QPlogPoct>  (8) 
21.693999999999999

>  <r_qp_QPlogPw>  (8) 
10.816000000000001

>  <r_qp_QPlogS>  (8) 
-4.3520000000000003

>  <r_qp_QPpolrz>  (8) 
48.444000000000003

>  <r_qp_SASA>  (8) 
809.36099999999999

>  <r_qp_SAamideO>  (8) 
0

>  <r_qp_SAfluorine>  (8) 
0

>  <r_qp_WPSA>  (8) 
0

>  <r_qp_accptHB>  (8) 
5.75

>  <r_qp_dip^2/V>  (8) 
0.0061380999999999996

>  <r_qp_dipole>  (8) 
2.9900000000000002

>  <r_qp_donorHB>  (8) 
2

>  <r_qp_glob>  (8) 
0.7676328

>  <r_qp_mol_MW>  (8) 
420.55000000000001

>  <r_qp_volume>  (8) 
1456.117

>  <r_sd_BIOSOLVEIT.INFINISEE\_FTREES\_SIMILARITY>  (8) 
0.90900000000000003

>  <r_sd_BIOSOLVEIT.LOGP>  (8) 
1.9715

>  <r_sd_BIOSOLVEIT.MOLECULAR\_WEIGHT>  (8) 
422.56599999999997

>  <r_sd_BIOSOLVEIT.TPSA>  (8) 
59.740000000000002

>  <i_epik_Tot_Q>  (8) 
2

>  <i_epik_Tot_abs_Q>  (8) 
2

>  <i_f3d_flags>  (8) 
0

>  <i_i_glide_confnum>  (8) 
4

>  <i_i_glide_lignum>  (8) 
538

>  <i_i_glide_posenum>  (8) 
7

>  <i_i_glide_rotatable_bonds>  (8) 
12

>  <i_lp_mmshare_version>  (8) 
65135

>  <i_m_ct_format>  (8) 
2

>  <i_m_source_file_index>  (8) 
1392

>  <i_qp_#NandO>  (8) 
5

>  <i_qp_#acid>  (8) 
0

>  <i_qp_#amide>  (8) 
0

>  <i_qp_#amidine>  (8) 
0

>  <i_qp_#amine>  (8) 
2

>  <i_qp_#in34>  (8) 
0

>  <i_qp_#in56>  (8) 
18

>  <i_qp_#metab>  (8) 
9

>  <i_qp_#nonHatm>  (8) 
31

>  <i_qp_#noncon>  (8) 
0

>  <i_qp_#ringatoms>  (8) 
18

>  <i_qp_#rotor>  (8) 
12

>  <i_qp_#rtvFG>  (8) 
0

>  <i_qp_#stars>  (8) 
1

>  <i_qp_CNS>  (8) 
1

>  <i_qp_HumanOralAbsorption>  (8) 
3

>  <i_qp_RuleOfFive>  (8) 
0

>  <i_qp_RuleOfThree>  (8) 
1

>  <i_sd_BIOSOLVEIT.INFINISEE\_REAGENT1\_NAME>  (8) 
23846038

>  <i_sd_BIOSOLVEIT.INFINISEE\_REAGENT2\_NAME>  (8) 
24720040

>  <i_sd_BIOSOLVEIT.INFINISEE\_RESULT\_RANK>  (8) 
52148

>  <i_sd_version>  (8) 
0

>  <b_lp_Chiralities_Consistent>  (8) 
1

>  <b_sd_chiral_flag>  (8) 
0

>  <canonical_id>  (8) 
ATP-HTVS-1C066C79A7D0

>  <compound_code>  (8) 
44515

>  <title>  (8) 
m_270004bbb____23846038____24720040

>  <variant>  (8) 
44515-2

>  <source_file>  (8) 
运行/运行/ATP-VSW/ATP-VSW-DOCK_HTVS_1-003_lib/ATP-VSW-DOCK_HTVS_1-003_lib.mae

>  <canonical_smiles>  (8) 
COc1cc(C[NH2+]C[C@@H](C[NH+](C)C)c2ccccc2)cc(O)c1OCc1ccccc1

>  <scaffold>  (8) 
c1ccc(CC[NH2+]Cc2ccc(OCc3ccccc3)cc2)cc1

>  <molecular_formula>  (8) 
C26H34N2O3+2

>  <acquisition_id_v2>  (8) 
ATP-ACQ2-0008

>  <selection_arm_v2>  (8) 
local_structure_bridge

>  <priority_v2>  (8) 
P0

$$$$
ATP-ACQ2-0009
     RDKit          3D

 46 49  0  0  0  0  0  0  0  0999 V2000
  196.0142  184.5498  160.5342 F   0  0  0  0  0  0  0  0  0  0  0  0
  196.3677  183.8020  159.4640 C   0  0  0  0  0  0  0  0  0  0  0  0
  195.3975  183.0100  158.8250 C   0  0  0  0  0  0  0  0  0  0  0  0
  195.7574  182.2328  157.7111 C   0  0  0  0  0  0  0  0  0  0  0  0
  197.0749  182.2580  157.2082 C   0  0  0  0  0  0  0  0  0  0  0  0
  198.0463  183.0588  157.8499 C   0  0  0  0  0  0  0  0  0  0  0  0
  197.6946  183.8282  158.9791 C   0  0  0  0  0  0  0  0  0  0  0  0
  197.3762  181.4223  156.0407 C   0  0  0  0  0  0  0  0  0  0  0  0
  198.6039  181.1271  155.5763 C   0  0  0  0  0  0  0  0  0  0  0  0
  198.8277  180.3769  154.4008 N   0  0  0  0  0  0  0  0  0  0  0  0
  197.9837  180.2912  153.2807 C   0  0  0  0  0  0  0  0  0  0  0  0
  198.6827  179.4723  152.3553 C   0  0  0  0  0  0  0  0  0  0  0  0
  199.9350  179.1318  152.8530 N   0  0  0  0  0  0  0  0  0  0  0  0
  199.9200  179.6366  154.0890 C   0  0  0  0  0  0  0  0  0  0  0  0
  201.0506  179.3666  155.0505 C   0  0  0  0  0  0  0  0  0  0  0  0
  200.7249  178.2386  156.0347 C   0  0  0  0  0  0  0  0  0  0  0  0
  200.2194  178.5754  157.1493 N   0  0  0  0  0  0  0  0  0  0  0  0
  199.9368  177.4358  157.9749 O   0  0  0  0  0  0  0  0  0  0  0  0
  201.1324  176.8525  155.6288 C   0  0  0  0  0  0  0  0  0  0  0  0
  201.9428  176.0619  156.4919 C   0  0  0  0  0  0  0  0  0  0  0  0
  202.3516  174.7566  156.1211 C   0  0  0  0  0  0  0  0  0  0  0  0
  201.9572  174.2233  154.8820 C   0  0  0  0  0  0  0  0  0  0  0  0
  201.1648  175.0001  154.0161 C   0  0  0  0  0  0  0  0  0  0  0  0
  200.7492  176.2859  154.4038 C   0  0  0  0  0  0  0  0  0  0  0  0
  198.0950  179.1291  151.1179 C   0  0  0  0  0  0  0  0  0  0  0  0
  196.8313  179.6486  150.7717 C   0  0  0  0  0  0  0  0  0  0  0  0
  196.1604  180.5029  151.6662 C   0  0  0  0  0  0  0  0  0  0  0  0
  196.7367  180.8461  152.9047 C   0  0  0  0  0  0  0  0  0  0  0  0
  194.3804  182.9796  159.1840 H   0  0  0  0  0  0  0  0  0  0  0  0
  195.0133  181.6318  157.2159 H   0  0  0  0  0  0  0  0  0  0  0  0
  199.0633  183.0966  157.4895 H   0  0  0  0  0  0  0  0  0  0  0  0
  198.4375  184.4354  159.4802 H   0  0  0  0  0  0  0  0  0  0  0  0
  196.4974  181.0205  155.5637 H   0  0  0  0  0  0  0  0  0  0  0  0
  199.5081  181.4274  156.0737 H   0  0  0  0  0  0  0  0  0  0  0  0
  201.9411  179.1007  154.4866 H   0  0  0  0  0  0  0  0  0  0  0  0
  201.3107  180.2790  155.5952 H   0  0  0  0  0  0  0  0  0  0  0  0
  198.9960  177.5122  158.1155 H   0  0  0  0  0  0  0  0  0  0  0  0
  202.2566  176.4746  157.4246 H   0  0  0  0  0  0  0  0  0  0  0  0
  202.9529  174.1728  156.8112 H   0  0  0  0  0  0  0  0  0  0  0  0
  202.2451  173.2141  154.5991 H   0  0  0  0  0  0  0  0  0  0  0  0
  200.8544  174.6123  153.0592 H   0  0  0  0  0  0  0  0  0  0  0  0
  200.1005  176.8063  153.7152 H   0  0  0  0  0  0  0  0  0  0  0  0
  198.6260  178.4852  150.4276 H   0  0  0  0  0  0  0  0  0  0  0  0
  196.3943  179.4279  149.8075 H   0  0  0  0  0  0  0  0  0  0  0  0
  195.2092  180.9303  151.3946 H   0  0  0  0  0  0  0  0  0  0  0  0
  196.1980  181.5501  153.5157 H   0  0  0  0  0  0  0  0  0  0  0  0
  1  2  1  0
  2  3  1  0
  2  7  2  0
  3  4  2  0
  3 29  1  0
  4  5  1  0
  4 30  1  0
  5  6  2  0
  5  8  1  0
  6  7  1  0
  6 31  1  0
  7 32  1  0
  8  9  2  0
  8 33  1  0
  9 10  1  0
  9 34  1  0
 10 11  1  0
 10 14  1  0
 11 12  1  0
 11 28  2  0
 12 13  1  0
 12 25  2  0
 13 14  2  0
 14 15  1  0
 15 16  1  0
 15 35  1  0
 15 36  1  0
 16 17  2  0
 16 19  1  0
 17 18  1  0
 18 37  1  0
 19 20  2  0
 19 24  1  0
 20 21  1  0
 20 38  1  0
 21 22  2  0
 21 39  1  0
 22 23  1  0
 22 40  1  0
 23 24  2  0
 23 41  1  0
 24 42  1  0
 25 26  1  0
 25 43  1  0
 26 27  2  0
 26 44  1  0
 27 28  1  0
 27 45  1  0
 28 46  1  0
M  END
>  <s_epik_Chemistry_Notes>  (9) 
This compound has an imine and may undergo hydrolysis.

>  <s_epik_cmdline>  (9) 
J2VwaWtfcHl0aG9uJywgJy1waCcsICc3LjAwMDAwMCcsICctcGh0JywgJzIuMDAwMDAwJywgJy1tcycsICcxNicsICctdG4nLCAnOCcsICctbWEnLCAnMjAwJywgJy1pbWFlJywgJzxpbmZpbGUubWFlPicsICctb21hZScsICc8b3V0ZmlsZS5tYWU+Jw==

>  <s_epik_input>  (9) 
RmMxW2NIXVtjSF1jKFtjSF1bY0hdMSkvW0NIXT1bQ0hdL24yYyhuYyhjMjMpW2NIXVtjSF1bY0hdW2NIXTMpW0NIMl0vQyg9Ti9bT0hdKWM0W2NIXVtjSF1bY0hdW2NIXVtjSF00

>  <s_i_glide_gridfile>  (9) 
ATP-Grid

>  <s_lp_Force_Field>  (9) 
OPLS_2005

>  <s_lp_Variant>  (9) 
N-ArylationHeterocycle____206845508____45772004-1

>  <s_lp_label>  (9) 
653_sdstereoexpander_1_neutralizer_1_epik_1_stereoizer_1

>  <s_m_source_file>  (9) 
ATP-VSW-LIGPREP-001-in.maegz

>  <s_sd_BIOSOLVEIT.INFINISEE\_QUERY\_NAME>  (9) 
Ref-Lig

>  <s_sd_BIOSOLVEIT.INFINISEE\_QUERY\_SMILES>  (9) 
S(c1nc2c(cc1C[NH2+]Cc3ccc(cc3)C[NH+](C)C)cccc2)Cc4ccccc4

>  <s_sd_BIOSOLVEIT.INFINISEE\_REACTION\_NAME>  (9) 
N-ArylationHeterocycle

>  <s_sd_BIOSOLVEIT.INFINISEE\_REAGENT1\_SMILES>  (9) 
Fc1ccc(cc1)C=CB(O)O

>  <s_sd_BIOSOLVEIT.INFINISEE\_REAGENT2\_SMILES>  (9) 
ON=C(c1ccccc1)CC2=Nc3c(N2)cccc3

>  <s_sd_BIOSOLVEIT.INFINISEE\_SPACE>  (9) 
KnowledgeSpace_290tr_2019-05

>  <s_vsw_compound_code>  (9) 
20865

>  <s_vsw_variant>  (9) 
20865-1

>  <r_epik_Charging_Adjusted_Penalty>  (9) 
0.0449472433815837

>  <r_epik_Ionization_Penalty>  (9) 
0.045100000000000001

>  <r_epik_Ionization_Penalty_Charging>  (9) 
0

>  <r_epik_Ionization_Penalty_Neutral>  (9) 
0.045100000000000001

>  <r_epik_State_Penalty>  (9) 
0.044900000000000002

>  <r_i_docking_score>  (9) 
-4.8735530465891799

>  <r_i_glide_ecoul>  (9) 
-8.2591476440429705

>  <r_i_glide_eff_state_penalty>  (9) 
0.044900000000000002

>  <r_i_glide_einternal>  (9) 
3.2151002883911102

>  <r_i_glide_emodel>  (9) 
-51.126114169490499

>  <r_i_glide_energy>  (9) 
-40.057785034179702

>  <r_i_glide_erotb>  (9) 
0.83959797768802502

>  <r_i_glide_esite>  (9) 
-0.181903373570174

>  <r_i_glide_evdw>  (9) 
-31.798637390136701

>  <r_i_glide_gscore>  (9) 
-4.91845304658918

>  <r_i_glide_hbond>  (9) 
-0.16

>  <r_i_glide_ligand_efficiency>  (9) 
-0.17405546594961399

>  <r_i_glide_ligand_efficiency_ln>  (9) 
-1.1249591368880401

>  <r_i_glide_ligand_efficiency_sa>  (9) 
-0.52853490781021495

>  <r_i_glide_lipo>  (9) 
-1.5649506017919601

>  <r_i_glide_metal>  (9) 
-0

>  <r_i_glide_rewards>  (9) 
-1.0223930328018001

>  <r_lp_Energy>  (9) 
29.508853999999999

>  <r_qp_ACxDN^.5/SA>  (9) 
0.0069026000000000001

>  <r_qp_CIQPlogS>  (9) 
-6.343

>  <r_qp_EA(eV)>  (9) 
1.0669999999999999

>  <r_qp_FISA>  (9) 
90.319999999999993

>  <r_qp_FOSA>  (9) 
41.332000000000001

>  <r_qp_IP(eV)>  (9) 
8.5879999999999992

>  <r_qp_Jm>  (9) 
0.467123459939288

>  <r_qp_PISA>  (9) 
429.76999999999998

>  <r_qp_PSA>  (9) 
53.423999999999999

>  <r_qp_PercentHumanOralAbsorption>  (9) 
100

>  <r_qp_QPPCaco>  (9) 
1378.453

>  <r_qp_QPPMDCK>  (9) 
1266.825

>  <r_qp_QPlogBB>  (9) 
-0.55400000000000005

>  <r_qp_QPlogHERG>  (9) 
-5.819

>  <r_qp_QPlogKhsa>  (9) 
0.58899999999999997

>  <r_qp_QPlogKp>  (9) 
-0.998

>  <r_qp_QPlogPC16>  (9) 
12.332000000000001

>  <r_qp_QPlogPo/w>  (9) 
4.6779999999999999

>  <r_qp_QPlogPoct>  (9) 
16.899999999999999

>  <r_qp_QPlogPw>  (9) 
8.7949999999999999

>  <r_qp_QPlogS>  (9) 
-4.9020000000000001

>  <r_qp_QPpolrz>  (9) 
38.633000000000003

>  <r_qp_SASA>  (9) 
608.46500000000003

>  <r_qp_SAamideO>  (9) 
0

>  <r_qp_SAfluorine>  (9) 
47.042999999999999

>  <r_qp_WPSA>  (9) 
47.042999999999999

>  <r_qp_accptHB>  (9) 
4.2000000000000002

>  <r_qp_dip^2/V>  (9) 
0.0076536

>  <r_qp_dipole>  (9) 
2.9390000000000001

>  <r_qp_donorHB>  (9) 
1

>  <r_qp_glob>  (9) 
0.86171129999999996

>  <r_qp_mol_MW>  (9) 
371.41300000000001

>  <r_qp_volume>  (9) 
1128.883

>  <r_sd_BIOSOLVEIT.INFINISEE\_FTREES\_SIMILARITY>  (9) 
0.90400000000000003

>  <r_sd_BIOSOLVEIT.LOGP>  (9) 
5.2243000000000004

>  <r_sd_BIOSOLVEIT.MOLECULAR\_WEIGHT>  (9) 
371.41300000000001

>  <r_sd_BIOSOLVEIT.TPSA>  (9) 
50.409999999999997

>  <i_epik_Tot_Q>  (9) 
0

>  <i_epik_Tot_abs_Q>  (9) 
0

>  <i_f3d_flags>  (9) 
0

>  <i_i_glide_confnum>  (9) 
6

>  <i_i_glide_lignum>  (9) 
90

>  <i_i_glide_posenum>  (9) 
18

>  <i_i_glide_rotatable_bonds>  (9) 
6

>  <i_lp_mmshare_version>  (9) 
65135

>  <i_m_ct_format>  (9) 
2

>  <i_m_source_file_index>  (9) 
653

>  <i_qp_#NandO>  (9) 
4

>  <i_qp_#acid>  (9) 
0

>  <i_qp_#amide>  (9) 
0

>  <i_qp_#amidine>  (9) 
0

>  <i_qp_#amine>  (9) 
0

>  <i_qp_#in34>  (9) 
0

>  <i_qp_#in56>  (9) 
21

>  <i_qp_#metab>  (9) 
1

>  <i_qp_#nonHatm>  (9) 
28

>  <i_qp_#noncon>  (9) 
0

>  <i_qp_#ringatoms>  (9) 
21

>  <i_qp_#rotor>  (9) 
7

>  <i_qp_#rtvFG>  (9) 
0

>  <i_qp_#stars>  (9) 
0

>  <i_qp_CNS>  (9) 
0

>  <i_qp_HumanOralAbsorption>  (9) 
3

>  <i_qp_RuleOfFive>  (9) 
0

>  <i_qp_RuleOfThree>  (9) 
0

>  <i_sd_BIOSOLVEIT.INFINISEE\_REAGENT1\_NAME>  (9) 
206845508

>  <i_sd_BIOSOLVEIT.INFINISEE\_REAGENT2\_NAME>  (9) 
45772004

>  <i_sd_BIOSOLVEIT.INFINISEE\_RESULT\_RANK>  (9) 
77504

>  <i_sd_version>  (9) 
0

>  <b_lp_Chiralities_Consistent>  (9) 
1

>  <b_sd_chiral_flag>  (9) 
0

>  <canonical_id>  (9) 
ATP-HTVS-84C0F320BB18

>  <compound_code>  (9) 
20865

>  <title>  (9) 
N-ArylationHeterocycle____206845508____45772004

>  <variant>  (9) 
20865-1

>  <source_file>  (9) 
运行/运行/ATP-VSW/ATP-VSW-DOCK_HTVS_1-001_lib/ATP-VSW-DOCK_HTVS_1-001_lib

>  <canonical_smiles>  (9) 
O/N=C(/Cc1nc2ccccc2n1/C=C/c1ccc(F)cc1)c1ccccc1

>  <scaffold>  (9) 
N=C(Cc1nc2ccccc2n1C=Cc1ccccc1)c1ccccc1

>  <molecular_formula>  (9) 
C23H18FN3O

>  <acquisition_id_v2>  (9) 
ATP-ACQ2-0009

>  <selection_arm_v2>  (9) 
scaffold_score_exploration

>  <priority_v2>  (9) 
P0

$$$$
ATP-ACQ2-0010
     RDKit          3D

 53 55  0  0  0  0  0  0  0  0999 V2000
  198.4147  185.3984  147.0090 Br  0  0  0  0  0  0  0  0  0  0  0  0
  197.9063  184.1274  148.3282 C   0  0  0  0  0  0  0  0  0  0  0  0
  196.7843  184.3670  149.1511 C   0  0  0  0  0  0  0  0  0  0  0  0
  196.3964  183.4158  150.1121 C   0  0  0  0  0  0  0  0  0  0  0  0
  197.1528  182.2330  150.2814 C   0  0  0  0  0  0  0  0  0  0  0  0
  196.7957  181.2972  151.2115 O   0  0  0  0  0  0  0  0  0  0  0  0
  196.9146  181.5832  152.5511 C   0  0  0  0  0  0  0  0  0  0  0  0
  196.7502  180.5054  153.3510 N   0  0  0  0  0  0  0  0  0  0  0  0
  196.7950  180.6792  154.6864 C   0  0  0  0  0  0  0  0  0  0  0  0
  196.9925  181.9404  155.2808 C   0  0  0  0  0  0  0  0  0  0  0  0
  197.1611  183.0630  154.4521 C   0  0  0  0  0  0  0  0  0  0  0  0
  197.1519  182.8851  153.0644 C   0  0  0  0  0  0  0  0  0  0  0  0
  197.0437  182.1022  156.7755 C   0  0  0  0  0  0  0  0  0  0  0  0
  195.7359  181.8361  157.4119 N   0  0  0  0  0  0  0  0  0  0  0  0
  195.7299  182.0049  158.8813 C   0  0  0  0  0  0  0  0  0  0  0  0
  195.9670  183.4473  159.3055 C   0  0  0  0  0  0  0  0  0  0  0  0
  197.2840  183.9448  159.4211 C   0  0  0  0  0  0  0  0  0  0  0  0
  197.5012  185.2978  159.7328 C   0  0  0  0  0  0  0  0  0  0  0  0
  196.4089  186.1577  159.9870 C   0  0  0  0  0  0  0  0  0  0  0  0
  195.0994  185.6472  159.9180 C   0  0  0  0  0  0  0  0  0  0  0  0
  194.8757  184.3004  159.5659 C   0  0  0  0  0  0  0  0  0  0  0  0
  196.6528  187.6231  160.3255 C   0  0  0  0  0  0  0  0  0  0  0  0
  196.7473  188.4994  159.1267 N   0  0  0  0  0  0  0  0  0  0  0  0
  196.7964  189.9281  159.5083 C   0  0  0  0  0  0  0  0  0  0  0  0
  197.8522  188.1510  158.1966 C   0  0  0  0  0  0  0  0  0  0  0  0
  198.2725  181.9976  149.4575 C   0  0  0  0  0  0  0  0  0  0  0  0
  198.6504  182.9451  148.4887 C   0  0  0  0  0  0  0  0  0  0  0  0
  194.9987  182.3614  156.9605 H   0  0  0  0  0  0  0  0  0  0  0  0
  196.2161  185.2770  149.0282 H   0  0  0  0  0  0  0  0  0  0  0  0
  195.5205  183.5827  150.7204 H   0  0  0  0  0  0  0  0  0  0  0  0
  196.6633  179.8025  155.3069 H   0  0  0  0  0  0  0  0  0  0  0  0
  197.3029  184.0533  154.8626 H   0  0  0  0  0  0  0  0  0  0  0  0
  197.2848  183.7625  152.4526 H   0  0  0  0  0  0  0  0  0  0  0  0
  197.8084  181.4402  157.1854 H   0  0  0  0  0  0  0  0  0  0  0  0
  197.3612  183.1317  156.9508 H   0  0  0  0  0  0  0  0  0  0  0  0
  194.7677  181.6530  159.2595 H   0  0  0  0  0  0  0  0  0  0  0  0
  196.4857  181.3519  159.3244 H   0  0  0  0  0  0  0  0  0  0  0  0
  198.1334  183.3058  159.2358 H   0  0  0  0  0  0  0  0  0  0  0  0
  198.5126  185.6730  159.7814 H   0  0  0  0  0  0  0  0  0  0  0  0
  194.2506  186.2871  160.1042 H   0  0  0  0  0  0  0  0  0  0  0  0
  193.8607  183.9364  159.4747 H   0  0  0  0  0  0  0  0  0  0  0  0
  195.8332  187.9688  160.9575 H   0  0  0  0  0  0  0  0  0  0  0  0
  197.5471  187.7220  160.9314 H   0  0  0  0  0  0  0  0  0  0  0  0
  197.6970  190.1499  160.0854 H   0  0  0  0  0  0  0  0  0  0  0  0
  195.9318  190.1996  160.1172 H   0  0  0  0  0  0  0  0  0  0  0  0
  196.7905  190.5669  158.6233 H   0  0  0  0  0  0  0  0  0  0  0  0
  198.8178  188.2041  158.7018 H   0  0  0  0  0  0  0  0  0  0  0  0
  197.8778  188.8357  157.3460 H   0  0  0  0  0  0  0  0  0  0  0  0
  197.7338  187.1492  157.7846 H   0  0  0  0  0  0  0  0  0  0  0  0
  198.8463  181.0854  149.5741 H   0  0  0  0  0  0  0  0  0  0  0  0
  199.5165  182.7634  147.8663 H   0  0  0  0  0  0  0  0  0  0  0  0
  195.8869  188.3736  158.6140 H   0  0  0  0  0  0  0  0  0  0  0  0
  195.5411  180.8386  157.2879 H   0  0  0  0  0  0  0  0  0  0  0  0
  1  2  1  0
  2  3  1  0
  2 27  2  0
  3  4  2  0
  3 29  1  0
  4  5  1  0
  4 30  1  0
  5  6  1  0
  5 26  2  0
  6  7  1  0
  7  8  1  0
  7 12  2  0
  8  9  2  0
  9 10  1  0
  9 31  1  0
 10 11  2  0
 10 13  1  0
 11 12  1  0
 11 32  1  0
 12 33  1  0
 13 14  1  0
 13 34  1  0
 13 35  1  0
 14 15  1  0
 14 28  1  0
 14 53  1  0
 15 16  1  0
 15 36  1  0
 15 37  1  0
 16 17  1  0
 16 21  2  0
 17 18  2  0
 17 38  1  0
 18 19  1  0
 18 39  1  0
 19 20  2  0
 19 22  1  0
 20 21  1  0
 20 40  1  0
 21 41  1  0
 22 23  1  0
 22 42  1  0
 22 43  1  0
 23 24  1  0
 23 25  1  0
 23 52  1  0
 24 44  1  0
 24 45  1  0
 24 46  1  0
 25 47  1  0
 25 48  1  0
 25 49  1  0
 26 27  1  0
 26 50  1  0
 27 51  1  0
M  CHG  2  14   1  23   1
M  END
>  <s_epik_cmdline>  (10) 
J2VwaWtfcHl0aG9uJywgJy1waCcsICc3LjAwMDAwMCcsICctcGh0JywgJzIuMDAwMDAwJywgJy1tcycsICcxNicsICctdG4nLCAnOCcsICctbWEnLCAnMjAwJywgJy1pbWFlJywgJzxpbmZpbGUubWFlPicsICctb21hZScsICc8b3V0ZmlsZS5tYWU+Jw==

>  <s_epik_input>  (10) 
QnJjMVtjSF1bY0hdYyhbY0hdW2NIXTEpT2MybltjSF1jKFtjSF1bY0hdMilbQ0gyXVtOSF1bQ0gyXWMzW2NIXVtjSF1jKFtjSF1bY0hdMylbQ0gyXU4oW0NIM10pW0NIM10=

>  <s_i_glide_gridfile>  (10) 
ATP-Grid

>  <s_lp_Force_Field>  (10) 
OPLS_2005

>  <s_lp_Variant>  (10) 
m_270004bbb____8288884____20640242-1

>  <s_lp_label>  (10) 
1197_sdstereoexpander_1_neutralizer_1_epik_1_stereoizer_1

>  <s_m_source_file>  (10) 
ATP-VSW-LIGPREP-002-in.maegz

>  <s_sd_BIOSOLVEIT.INFINISEE\_QUERY\_NAME>  (10) 
Ref-Lig

>  <s_sd_BIOSOLVEIT.INFINISEE\_QUERY\_SMILES>  (10) 
S(c1nc2c(cc1C[NH2+]Cc3ccc(cc3)C[NH+](C)C)cccc2)Cc4ccccc4

>  <s_sd_BIOSOLVEIT.INFINISEE\_REACTION\_NAME>  (10) 
m_270004bbb

>  <s_sd_BIOSOLVEIT.INFINISEE\_REAGENT1\_SMILES>  (10) 
[R1*]NCc1ccc(cc1)CN(C)C

>  <s_sd_BIOSOLVEIT.INFINISEE\_REAGENT2\_SMILES>  (10) 
[R1*]Cc1cnc(Oc2ccc(Br)cc2)cc1

>  <s_sd_BIOSOLVEIT.INFINISEE\_SPACE>  (10) 
REALSpace_44bn_2023-08

>  <s_vsw_compound_code>  (10) 
38274

>  <s_vsw_variant>  (10) 
38274-1

>  <r_epik_Charging_Adjusted_Penalty>  (10) 
0.42394423779197299

>  <r_epik_Ionization_Penalty>  (10) 
0.20999999999999999

>  <r_epik_Ionization_Penalty_Charging>  (10) 
0.20999999999999999

>  <r_epik_Ionization_Penalty_Neutral>  (10) 
0

>  <r_epik_State_Penalty>  (10) 
0.214

>  <r_i_docking_score>  (10) 
-6.27229934947262

>  <r_i_glide_ecoul>  (10) 
-12.959820747375501

>  <r_i_glide_eff_state_penalty>  (10) 
0.214

>  <r_i_glide_einternal>  (10) 
2.0179190635681201

>  <r_i_glide_emodel>  (10) 
-79.270718719398204

>  <r_i_glide_energy>  (10) 
-48.894360542297399

>  <r_i_glide_erotb>  (10) 
0.75773174054959602

>  <r_i_glide_esite>  (10) 
-0.10000000000000001

>  <r_i_glide_evdw>  (10) 
-35.934539794921903

>  <r_i_glide_gscore>  (10) 
-6.4862993494726204

>  <r_i_glide_hbond>  (10) 
-0.40000000000000002

>  <r_i_glide_ligand_efficiency>  (10) 
-0.23230738331380099

>  <r_i_glide_ligand_efficiency_ln>  (10) 
-1.4600878816207601

>  <r_i_glide_ligand_efficiency_sa>  (10) 
-0.69692214917575501

>  <r_i_glide_lipo>  (10) 
-2.28991285180616

>  <r_i_glide_metal>  (10) 
-0

>  <r_i_glide_rewards>  (10) 
-0.71341813636363605

>  <r_lp_Energy>  (10) 
17.776261000000002

>  <r_lp_tautomer_probability>  (10) 
1

>  <r_qp_ACxDN^.5/SA>  (10) 
0.0066769000000000004

>  <r_qp_CIQPlogS>  (10) 
-4.8730000000000002

>  <r_qp_EA(eV)>  (10) 
0.435

>  <r_qp_FISA>  (10) 
37.649000000000001

>  <r_qp_FOSA>  (10) 
250.80000000000001

>  <r_qp_IP(eV)>  (10) 
9.0690000000000008

>  <r_qp_Jm>  (10) 
0.00057121106428761903

>  <r_qp_PISA>  (10) 
383.01299999999998

>  <r_qp_PSA>  (10) 
39.448

>  <r_qp_PercentHumanOralAbsorption>  (10) 
100

>  <r_qp_QPPCaco>  (10) 
270.81400000000002

>  <r_qp_QPPMDCK>  (10) 
391.596

>  <r_qp_QPlogBB>  (10) 
0.64500000000000002

>  <r_qp_QPlogHERG>  (10) 
-8.532

>  <r_qp_QPlogKhsa>  (10) 
0.82499999999999996

>  <r_qp_QPlogKp>  (10) 
-4.2210000000000001

>  <r_qp_QPlogPC16>  (10) 
14.208

>  <r_qp_QPlogPo/w>  (10) 
4.7800000000000002

>  <r_qp_QPlogPoct>  (10) 
18.809000000000001

>  <r_qp_QPlogPw>  (10) 
9.0350000000000001

>  <r_qp_QPlogS>  (10) 
-4.6520000000000001

>  <r_qp_QPpolrz>  (10) 
44.472999999999999

>  <r_qp_SASA>  (10) 
748.85199999999998

>  <r_qp_SAamideO>  (10) 
0

>  <r_qp_SAfluorine>  (10) 
0

>  <r_qp_WPSA>  (10) 
77.390000000000001

>  <r_qp_accptHB>  (10) 
5

>  <r_qp_dip^2/V>  (10) 
0.0059160000000000003

>  <r_qp_dipole>  (10) 
2.7749999999999999

>  <r_qp_donorHB>  (10) 
1

>  <r_qp_glob>  (10) 
0.77003739999999998

>  <r_qp_mol_MW>  (10) 
426.35500000000002

>  <r_qp_volume>  (10) 
1302.01

>  <r_sd_BIOSOLVEIT.INFINISEE\_FTREES\_SIMILARITY>  (10) 
0.91100000000000003

>  <r_sd_BIOSOLVEIT.LOGP>  (10) 
2.5445000000000002

>  <r_sd_BIOSOLVEIT.MOLECULAR\_WEIGHT>  (10) 
428.37099999999998

>  <r_sd_BIOSOLVEIT.TPSA>  (10) 
43.170000000000002

>  <i_epik_Tot_Q>  (10) 
2

>  <i_epik_Tot_abs_Q>  (10) 
2

>  <i_f3d_flags>  (10) 
0

>  <i_i_glide_confnum>  (10) 
1

>  <i_i_glide_lignum>  (10) 
413

>  <i_i_glide_posenum>  (10) 
9

>  <i_i_glide_rotatable_bonds>  (10) 
8

>  <i_lp_mmshare_version>  (10) 
65135

>  <i_m_ct_format>  (10) 
2

>  <i_m_source_file_index>  (10) 
1197

>  <i_qp_#NandO>  (10) 
4

>  <i_qp_#acid>  (10) 
0

>  <i_qp_#amide>  (10) 
0

>  <i_qp_#amidine>  (10) 
0

>  <i_qp_#amine>  (10) 
2

>  <i_qp_#in34>  (10) 
0

>  <i_qp_#in56>  (10) 
18

>  <i_qp_#metab>  (10) 
6

>  <i_qp_#nonHatm>  (10) 
27

>  <i_qp_#noncon>  (10) 
0

>  <i_qp_#ringatoms>  (10) 
18

>  <i_qp_#rotor>  (10) 
8

>  <i_qp_#rtvFG>  (10) 
0

>  <i_qp_#stars>  (10) 
0

>  <i_qp_CNS>  (10) 
2

>  <i_qp_HumanOralAbsorption>  (10) 
3

>  <i_qp_RuleOfFive>  (10) 
0

>  <i_qp_RuleOfThree>  (10) 
0

>  <i_sd_BIOSOLVEIT.INFINISEE\_REAGENT1\_NAME>  (10) 
8288884

>  <i_sd_BIOSOLVEIT.INFINISEE\_REAGENT2\_NAME>  (10) 
20640242

>  <i_sd_BIOSOLVEIT.INFINISEE\_RESULT\_RANK>  (10) 
39995

>  <i_sd_version>  (10) 
0

>  <b_lp_Chiralities_Consistent>  (10) 
1

>  <b_sd_chiral_flag>  (10) 
0

>  <canonical_id>  (10) 
ATP-HTVS-6EF9F712D3BB

>  <compound_code>  (10) 
38274

>  <title>  (10) 
m_270004bbb____8288884____20640242

>  <variant>  (10) 
38274-1

>  <source_file>  (10) 
运行/运行/ATP-VSW/ATP-VSW-DOCK_HTVS_1-002_lib.maegz

>  <canonical_smiles>  (10) 
C[NH+](C)Cc1ccc(C[NH2+]Cc2ccc(Oc3ccc(Br)cc3)nc2)cc1

>  <scaffold>  (10) 
c1ccc(C[NH2+]Cc2ccc(Oc3ccccc3)nc2)cc1

>  <molecular_formula>  (10) 
C22H26BrN3O+2

>  <acquisition_id_v2>  (10) 
ATP-ACQ2-0010

>  <selection_arm_v2>  (10) 
exploitation

>  <priority_v2>  (10) 
P0

$$$$
ATP-ACQ2-0011
     RDKit          3D

 59 61  0  0  0  0  0  0  0  0999 V2000
  197.2938  179.5929  149.3376 S   0  0  0  0  0  0  0  0  0  0  0  0
  197.8008  179.1869  150.9525 C   0  0  0  0  0  0  0  0  0  0  0  0
  196.9317  179.6570  152.0630 C   0  0  0  0  0  0  0  0  0  0  0  0
  195.8032  179.1706  152.1282 O   0  0  0  0  0  0  0  0  0  0  0  0
  197.3866  180.5752  152.9575 N   0  0  0  0  0  0  0  0  0  0  0  0
  198.2333  181.6856  152.5901 C   0  0  0  0  0  0  0  0  0  0  0  0
  197.8943  183.0156  152.9682 C   0  0  0  0  0  0  0  0  0  0  0  0
  198.7410  184.0976  152.7348 C   0  0  0  0  0  0  0  0  0  0  0  0
  199.9123  183.9150  151.9791 C   0  0  0  0  0  0  0  0  0  0  0  0
  200.2408  182.6221  151.5248 C   0  0  0  0  0  0  0  0  0  0  0  0
  199.4416  181.5224  151.8712 C   0  0  0  0  0  0  0  0  0  0  0  0
  197.0132  180.3610  154.3737 C   0  0  0  0  0  0  0  0  0  0  0  0
  196.4615  181.5723  155.1109 C   0  0  0  0  0  0  0  0  0  0  0  0
  196.3010  181.3945  156.5689 N   0  0  0  0  0  0  0  0  0  0  0  0
  198.9760  178.4598  150.9450 C   0  0  0  0  0  0  0  0  0  0  0  0
  199.6571  178.0186  152.0963 N   0  0  0  0  0  0  0  0  0  0  0  0
  200.8703  177.2066  152.0680 C   0  0  0  0  0  0  0  0  0  0  0  0
  201.3010  176.6595  153.4202 C   0  0  0  0  0  0  0  0  0  0  0  0
  200.5116  176.8585  154.5544 C   0  0  0  0  0  0  0  0  0  0  0  0
  200.9480  176.4987  155.8495 C   0  0  0  0  0  0  0  0  0  0  0  0
  202.1369  175.7584  155.9774 C   0  0  0  0  0  0  0  0  0  0  0  0
  202.9010  175.4644  154.8244 C   0  0  0  0  0  0  0  0  0  0  0  0
  202.5001  175.9287  153.5509 C   0  0  0  0  0  0  0  0  0  0  0  0
  200.1286  176.8826  157.0793 C   0  0  0  0  0  0  0  0  0  0  0  0
  199.9854  178.3465  157.3192 N   0  0  0  0  0  0  0  0  0  0  0  0
  199.5349  179.1138  156.1659 C   0  0  0  0  0  0  0  0  0  0  0  0
  201.1844  178.9687  157.8968 C   0  0  0  0  0  0  0  0  0  0  0  0
  199.5001  178.2728  149.6348 C   0  0  0  0  0  0  0  0  0  0  0  0
  198.7066  178.8227  148.6646 C   0  0  0  0  0  0  0  0  0  0  0  0
  195.9194  182.2580  156.9364 H   0  0  0  0  0  0  0  0  0  0  0  0
  197.2105  181.2360  156.9574 H   0  0  0  0  0  0  0  0  0  0  0  0
  196.9461  183.2743  153.4357 H   0  0  0  0  0  0  0  0  0  0  0  0
  198.4810  185.0693  153.1061 H   0  0  0  0  0  0  0  0  0  0  0  0
  200.5442  184.7542  151.7232 H   0  0  0  0  0  0  0  0  0  0  0  0
  201.1177  182.4501  150.9011 H   0  0  0  0  0  0  0  0  0  0  0  0
  199.8008  180.5859  151.5332 H   0  0  0  0  0  0  0  0  0  0  0  0
  196.3939  179.4932  154.5488 H   0  0  0  0  0  0  0  0  0  0  0  0
  197.9489  180.1996  154.8082 H   0  0  0  0  0  0  0  0  0  0  0  0
  197.1852  182.3928  155.1848 H   0  0  0  0  0  0  0  0  0  0  0  0
  195.5465  181.9041  154.6443 H   0  0  0  0  0  0  0  0  0  0  0  0
  199.2705  178.2530  152.9979 H   0  0  0  0  0  0  0  0  0  0  0  0
  200.6919  176.3652  151.4043 H   0  0  0  0  0  0  0  0  0  0  0  0
  201.6822  177.8062  151.6500 H   0  0  0  0  0  0  0  0  0  0  0  0
  199.5654  177.3577  154.4274 H   0  0  0  0  0  0  0  0  0  0  0  0
  202.4662  175.4181  156.9450 H   0  0  0  0  0  0  0  0  0  0  0  0
  203.8024  174.8743  154.9204 H   0  0  0  0  0  0  0  0  0  0  0  0
  203.0961  175.7139  152.6787 H   0  0  0  0  0  0  0  0  0  0  0  0
  199.1389  176.4353  156.9760 H   0  0  0  0  0  0  0  0  0  0  0  0
  200.5815  176.4425  157.9717 H   0  0  0  0  0  0  0  0  0  0  0  0
  200.2802  179.1557  155.3654 H   0  0  0  0  0  0  0  0  0  0  0  0
  199.3397  180.1503  156.3992 H   0  0  0  0  0  0  0  0  0  0  0  0
  198.6297  178.6051  155.8269 H   0  0  0  0  0  0  0  0  0  0  0  0
  202.0265  178.8864  157.2041 H   0  0  0  0  0  0  0  0  0  0  0  0
  201.4459  178.4955  158.8448 H   0  0  0  0  0  0  0  0  0  0  0  0
  201.0010  180.0336  158.0781 H   0  0  0  0  0  0  0  0  0  0  0  0
  200.4332  177.7700  149.4509 H   0  0  0  0  0  0  0  0  0  0  0  0
  198.8725  178.8236  147.5978 H   0  0  0  0  0  0  0  0  0  0  0  0
  195.7210  180.5993  156.7801 H   0  0  0  0  0  0  0  0  0  0  0  0
  199.2234  178.4152  157.9848 H   0  0  0  0  0  0  0  0  0  0  0  0
  1  2  1  0
  1 29  1  0
  2  3  1  0
  2 15  2  0
  3  4  2  0
  3  5  1  0
  5  6  1  0
  5 12  1  0
  6  7  2  0
  6 11  1  0
  7  8  1  0
  7 32  1  0
  8  9  2  0
  8 33  1  0
  9 10  1  0
  9 34  1  0
 10 11  2  0
 10 35  1  0
 11 36  1  0
 12 13  1  0
 12 37  1  0
 12 38  1  0
 13 14  1  0
 13 39  1  0
 13 40  1  0
 14 30  1  0
 14 31  1  0
 14 58  1  0
 15 16  1  0
 15 28  1  0
 16 17  1  0
 16 41  1  0
 17 18  1  0
 17 42  1  0
 17 43  1  0
 18 19  2  0
 18 23  1  0
 19 20  1  0
 19 44  1  0
 20 21  2  0
 20 24  1  0
 21 22  1  0
 21 45  1  0
 22 23  2  0
 22 46  1  0
 23 47  1  0
 24 25  1  0
 24 48  1  0
 24 49  1  0
 25 26  1  0
 25 27  1  0
 25 59  1  0
 26 50  1  0
 26 51  1  0
 26 52  1  0
 27 53  1  0
 27 54  1  0
 27 55  1  0
 28 29  2  0
 28 56  1  0
 29 57  1  0
M  CHG  2  14   1  25   1
M  END
>  <s_epik_cmdline>  (11) 
J2VwaWtfcHl0aG9uJywgJy1waCcsICc3LjAwMDAwMCcsICctcGh0JywgJzIuMDAwMDAwJywgJy1tcycsICcxNicsICctdG4nLCAnOCcsICctbWEnLCAnMjAwJywgJy1pbWFlJywgJzxpbmZpbGUubWFlPicsICctb21hZScsICc8b3V0ZmlsZS5tYWU+Jw==

>  <s_epik_input>  (11) 
W2NIXTFbY0hdW2NIXVtjSF1bY0hdYzFOKFtDSDJdW0NIMl1bTkgyXSlDKD1PKWMyc1tjSF1bY0hdYzJbTkhdW0NIMl1jM1tjSF1jKFtjSF1bY0hdW2NIXTMpW0NIMl1OKFtDSDNdKVtDSDNd

>  <s_i_glide_gridfile>  (11) 
ATP-Grid

>  <s_lp_Force_Field>  (11) 
OPLS_2005

>  <s_lp_Variant>  (11) 
rxn512b____EMOL530647____EMOL525138____EMOL2873214-1

>  <s_lp_label>  (11) 
2302_sdstereoexpander_1_neutralizer_1_epik_1_stereoizer_1

>  <s_m_source_file>  (11) 
ATP-VSW-LIGPREP-002-in.maegz

>  <s_sd_BIOSOLVEIT.INFINISEE\_QUERY\_NAME>  (11) 
Ref-Lig

>  <s_sd_BIOSOLVEIT.INFINISEE\_QUERY\_SMILES>  (11) 
S(c1nc2c(cc1C[NH2+]Cc3ccc(cc3)C[NH+](C)C)cccc2)Cc4ccccc4

>  <s_sd_BIOSOLVEIT.INFINISEE\_REACTION\_NAME>  (11) 
rxn512b

>  <s_sd_BIOSOLVEIT.INFINISEE\_REAGENT1\_NAME>  (11) 
EMOL530647

>  <s_sd_BIOSOLVEIT.INFINISEE\_REAGENT1\_SMILES>  (11) 
N(c1ccccc1)CCN

>  <s_sd_BIOSOLVEIT.INFINISEE\_REAGENT2\_NAME>  (11) 
EMOL525138

>  <s_sd_BIOSOLVEIT.INFINISEE\_REAGENT2\_SMILES>  (11) 
BrC1=C(SC=C1)C(=O)O

>  <s_sd_BIOSOLVEIT.INFINISEE\_REAGENT3\_NAME>  (11) 
EMOL2873214

>  <s_sd_BIOSOLVEIT.INFINISEE\_REAGENT3\_SMILES>  (11) 
N(Cc1cc(ccc1)CN)(C)C

>  <s_sd_BIOSOLVEIT.INFINISEE\_SPACE>  (11) 
eXplore_7tr_2022-12

>  <s_vsw_compound_code>  (11) 
73634

>  <s_vsw_variant>  (11) 
73634-1

>  <r_epik_Charging_Adjusted_Penalty>  (11) 
0.097987627613747796

>  <r_epik_Ionization_Penalty>  (11) 
0.049000000000000002

>  <r_epik_Ionization_Penalty_Charging>  (11) 
0.049000000000000002

>  <r_epik_Ionization_Penalty_Neutral>  (11) 
0

>  <r_epik_State_Penalty>  (11) 
0.049000000000000002

>  <r_i_docking_score>  (11) 
-4.8015347346297403

>  <r_i_glide_ecoul>  (11) 
-13.106920242309601

>  <r_i_glide_eff_state_penalty>  (11) 
0.049000000000000002

>  <r_i_glide_einternal>  (11) 
11.4149885177612

>  <r_i_glide_emodel>  (11) 
-58.299537620393302

>  <r_i_glide_energy>  (11) 
-40.061161041259801

>  <r_i_glide_erotb>  (11) 
0.93497750306097305

>  <r_i_glide_esite>  (11) 
-0.19000782168479799

>  <r_i_glide_evdw>  (11) 
-26.954240798950199

>  <r_i_glide_gscore>  (11) 
-4.8505347346297398

>  <r_i_glide_hbond>  (11) 
-0.32255257198711301

>  <r_i_glide_ligand_efficiency>  (11) 
-0.16557016326309401

>  <r_i_glide_ligand_efficiency_ln>  (11) 
-1.09942969781477

>  <r_i_glide_ligand_efficiency_sa>  (11) 
-0.50868399785379503

>  <r_i_glide_lipo>  (11) 
-0.84998633166953097

>  <r_i_glide_metal>  (11) 
-0

>  <r_i_glide_rewards>  (11) 
-1.1092154360553199

>  <r_lp_Energy>  (11) 
40.720495999999997

>  <r_lp_tautomer_probability>  (11) 
0.99999274205267796

>  <r_qp_ACxDN^.5/SA>  (11) 
0.011068700000000001

>  <r_qp_CIQPlogS>  (11) 
-2.9390000000000001

>  <r_qp_EA(eV)>  (11) 
0.312

>  <r_qp_FISA>  (11) 
101.84999999999999

>  <r_qp_FOSA>  (11) 
272.43200000000002

>  <r_qp_IP(eV)>  (11) 
8.1359999999999992

>  <r_qp_Jm>  (11) 
0.0036186793003327102

>  <r_qp_PISA>  (11) 
360.15100000000001

>  <r_qp_PSA>  (11) 
70.537999999999997

>  <r_qp_PercentHumanOralAbsorption>  (11) 
69.045000000000002

>  <r_qp_QPPCaco>  (11) 
16.625

>  <r_qp_QPPMDCK>  (11) 
11.997

>  <r_qp_QPlogBB>  (11) 
-0.28499999999999998

>  <r_qp_QPlogHERG>  (11) 
-9.0190000000000001

>  <r_qp_QPlogKhsa>  (11) 
0.67500000000000004

>  <r_qp_QPlogKp>  (11) 
-5.2930000000000001

>  <r_qp_QPlogPC16>  (11) 
15.019

>  <r_qp_QPlogPo/w>  (11) 
3.4590000000000001

>  <r_qp_QPlogPoct>  (11) 
21.364000000000001

>  <r_qp_QPlogPw>  (11) 
11.351000000000001

>  <r_qp_QPlogS>  (11) 
-2.7599999999999998

>  <r_qp_QPpolrz>  (11) 
45.679000000000002

>  <r_qp_SASA>  (11) 
766.60400000000004

>  <r_qp_SAamideO>  (11) 
0

>  <r_qp_SAfluorine>  (11) 
0

>  <r_qp_WPSA>  (11) 
32.170999999999999

>  <r_qp_accptHB>  (11) 
6

>  <r_qp_dip^2/V>  (11) 
0.012551400000000001

>  <r_qp_dipole>  (11) 
4.1459999999999999

>  <r_qp_donorHB>  (11) 
2

>  <r_qp_glob>  (11) 
0.7780456

>  <r_qp_mol_MW>  (11) 
408.56

>  <r_qp_volume>  (11) 
1369.673

>  <r_sd_BIOSOLVEIT.INFINISEE\_FTREES\_SIMILARITY>  (11) 
0.92300000000000004

>  <r_sd_BIOSOLVEIT.LOGP>  (11) 
1.8934

>  <r_sd_BIOSOLVEIT.MOLECULAR\_WEIGHT>  (11) 
410.58199999999999

>  <r_sd_BIOSOLVEIT.TPSA>  (11) 
64.420000000000002

>  <i_epik_Tot_Q>  (11) 
2

>  <i_epik_Tot_abs_Q>  (11) 
2

>  <i_f3d_flags>  (11) 
0

>  <i_i_glide_confnum>  (11) 
9

>  <i_i_glide_lignum>  (11) 
922

>  <i_i_glide_posenum>  (11) 
12

>  <i_i_glide_rotatable_bonds>  (11) 
10

>  <i_lp_mmshare_version>  (11) 
65135

>  <i_m_ct_format>  (11) 
2

>  <i_m_source_file_index>  (11) 
2302

>  <i_qp_#NandO>  (11) 
5

>  <i_qp_#acid>  (11) 
0

>  <i_qp_#amide>  (11) 
0

>  <i_qp_#amidine>  (11) 
0

>  <i_qp_#amine>  (11) 
3

>  <i_qp_#in34>  (11) 
0

>  <i_qp_#in56>  (11) 
17

>  <i_qp_#metab>  (11) 
8

>  <i_qp_#nonHatm>  (11) 
29

>  <i_qp_#noncon>  (11) 
0

>  <i_qp_#ringatoms>  (11) 
17

>  <i_qp_#rotor>  (11) 
10

>  <i_qp_#rtvFG>  (11) 
0

>  <i_qp_#stars>  (11) 
0

>  <i_qp_CNS>  (11) 
1

>  <i_qp_HumanOralAbsorption>  (11) 
2

>  <i_qp_RuleOfFive>  (11) 
0

>  <i_qp_RuleOfThree>  (11) 
2

>  <i_sd_BIOSOLVEIT.INFINISEE\_RESULT\_RANK>  (11) 
11819

>  <i_sd_version>  (11) 
0

>  <b_lp_Chiralities_Consistent>  (11) 
1

>  <b_sd_chiral_flag>  (11) 
0

>  <canonical_id>  (11) 
ATP-HTVS-2ECA33AB7628

>  <compound_code>  (11) 
73634

>  <title>  (11) 
rxn512b____EMOL530647____EMOL525138____EMOL2873214

>  <variant>  (11) 
73634-1

>  <source_file>  (11) 
运行/运行/ATP-VSW/ATP-VSW-DOCK_HTVS_1-002_lib.maegz

>  <canonical_smiles>  (11) 
C[NH+](C)Cc1cccc(CNc2ccsc2C(=O)N(CC[NH3+])c2ccccc2)c1

>  <scaffold>  (11) 
O=C(Nc1ccccc1)c1sccc1NCc1ccccc1

>  <molecular_formula>  (11) 
C23H30N4OS+2

>  <acquisition_id_v2>  (11) 
ATP-ACQ2-0011

>  <selection_arm_v2>  (11) 
local_structure_bridge

>  <priority_v2>  (11) 
P0

$$$$
ATP-ACQ2-0012
     RDKit          3D

 61 64  0  0  0  0  0  0  0  0999 V2000
  196.3516  187.8382  156.8008 F   0  0  0  0  0  0  0  0  0  0  0  0
  196.8113  186.5898  157.0547 C   0  0  0  0  0  0  0  0  0  0  0  0
  196.3181  185.8621  158.1547 C   0  0  0  0  0  0  0  0  0  0  0  0
  196.7802  184.5527  158.3990 C   0  0  0  0  0  0  0  0  0  0  0  0
  197.7404  183.9652  157.5478 C   0  0  0  0  0  0  0  0  0  0  0  0
  198.1928  182.6926  157.8037 O   0  0  0  0  0  0  0  0  0  0  0  0
  198.1339  181.7456  156.8109 C   0  0  0  0  0  0  0  0  0  0  0  0
  199.0452  180.7591  156.9242 N   0  0  0  0  0  0  0  0  0  0  0  0
  199.0262  179.8167  155.9906 C   0  0  0  0  0  0  0  0  0  0  0  0
  198.2136  179.7511  154.9348 N   0  0  0  0  0  0  0  0  0  0  0  0
  197.2824  180.7217  154.8258 C   0  0  0  0  0  0  0  0  0  0  0  0
  196.4019  180.6525  153.7715 O   0  0  0  0  0  0  0  0  0  0  0  0
  196.9010  180.5987  152.4940 C   0  0  0  0  0  0  0  0  0  0  0  0
  196.6874  181.6842  151.6226 C   0  0  0  0  0  0  0  0  0  0  0  0
  197.1696  181.6336  150.2982 C   0  0  0  0  0  0  0  0  0  0  0  0
  197.8722  180.5015  149.8415 C   0  0  0  0  0  0  0  0  0  0  0  0
  198.3465  180.4606  148.5743 F   0  0  0  0  0  0  0  0  0  0  0  0
  198.0831  179.4123  150.7050 C   0  0  0  0  0  0  0  0  0  0  0  0
  197.5905  179.4601  152.0223 C   0  0  0  0  0  0  0  0  0  0  0  0
  197.2002  181.7712  155.7540 C   0  0  0  0  0  0  0  0  0  0  0  0
  199.9662  178.8265  156.1315 N   0  0  0  0  0  0  0  0  0  0  0  0
  200.3836  177.8134  155.2653 C   0  0  0  0  0  0  0  0  0  0  0  0
  200.5785  176.5144  155.7741 C   0  0  0  0  0  0  0  0  0  0  0  0
  201.0269  175.4946  154.9113 C   0  0  0  0  0  0  0  0  0  0  0  0
  201.3463  175.7687  153.5437 C   0  0  0  0  0  0  0  0  0  0  0  0
  201.2307  177.1038  153.0576 C   0  0  0  0  0  0  0  0  0  0  0  0
  200.6922  178.0909  153.9122 C   0  0  0  0  0  0  0  0  0  0  0  0
  201.7825  174.6371  152.5807 C   0  0  2  0  0  0  0  0  0  0  0  0
  200.9097  174.4628  151.3925 N   0  0  0  0  0  0  0  0  0  0  0  0
  199.4995  174.3498  151.7618 C   0  0  0  0  0  0  0  0  0  0  0  0
  201.0231  175.4892  150.3482 C   0  0  0  0  0  0  0  0  0  0  0  0
  201.9569  173.2747  153.3259 C   0  0  0  0  0  0  0  0  0  0  0  0
  202.6316  172.2316  152.5241 N   0  0  0  0  0  0  0  0  0  0  0  0
  198.2442  184.7143  156.4590 C   0  0  0  0  0  0  0  0  0  0  0  0
  197.7722  186.0159  156.2046 C   0  0  0  0  0  0  0  0  0  0  0  0
  202.7711  171.3889  153.0829 H   0  0  0  0  0  0  0  0  0  0  0  0
  203.5440  172.5549  152.2351 H   0  0  0  0  0  0  0  0  0  0  0  0
  195.5652  186.3002  158.7943 H   0  0  0  0  0  0  0  0  0  0  0  0
  196.3949  183.9950  159.2395 H   0  0  0  0  0  0  0  0  0  0  0  0
  196.1398  182.5493  151.9670 H   0  0  0  0  0  0  0  0  0  0  0  0
  197.0026  182.4626  149.6283 H   0  0  0  0  0  0  0  0  0  0  0  0
  198.6275  178.5441  150.3623 H   0  0  0  0  0  0  0  0  0  0  0  0
  197.7585  178.6206  152.6764 H   0  0  0  0  0  0  0  0  0  0  0  0
  196.4496  182.5411  155.6691 H   0  0  0  0  0  0  0  0  0  0  0  0
  200.3041  178.7485  157.0785 H   0  0  0  0  0  0  0  0  0  0  0  0
  200.3912  176.2755  156.8162 H   0  0  0  0  0  0  0  0  0  0  0  0
  201.1048  174.5148  155.3645 H   0  0  0  0  0  0  0  0  0  0  0  0
  201.4973  177.3652  152.0488 H   0  0  0  0  0  0  0  0  0  0  0  0
  200.5453  179.0898  153.5287 H   0  0  0  0  0  0  0  0  0  0  0  0
  202.7734  174.9194  152.2117 H   0  0  0  0  0  0  0  0  0  0  0  0
  198.8791  174.2465  150.8725 H   0  0  0  0  0  0  0  0  0  0  0  0
  199.1437  175.2635  152.2298 H   0  0  0  0  0  0  0  0  0  0  0  0
  199.2898  173.5049  152.4306 H   0  0  0  0  0  0  0  0  0  0  0  0
  200.3826  175.2093  149.4863 H   0  0  0  0  0  0  0  0  0  0  0  0
  202.0510  175.5072  149.9611 H   0  0  0  0  0  0  0  0  0  0  0  0
  200.7307  176.4554  150.7087 H   0  0  0  0  0  0  0  0  0  0  0  0
  202.6258  173.3832  154.1664 H   0  0  0  0  0  0  0  0  0  0  0  0
  201.0065  172.8573  153.6895 H   0  0  0  0  0  0  0  0  0  0  0  0
  198.9904  184.2896  155.8060 H   0  0  0  0  0  0  0  0  0  0  0  0
  198.1383  186.5775  155.3565 H   0  0  0  0  0  0  0  0  0  0  0  0
  202.0656  172.0398  151.7173 H   0  0  0  0  0  0  0  0  0  0  0  0
  1  2  1  0
  2  3  1  0
  2 35  2  0
  3  4  2  0
  3 38  1  0
  4  5  1  0
  4 39  1  0
  5  6  1  0
  5 34  2  0
  6  7  1  0
  7  8  2  0
  7 20  1  0
  8  9  1  0
  9 10  2  0
  9 21  1  0
 10 11  1  0
 11 12  1  0
 11 20  2  0
 12 13  1  0
 13 14  1  0
 13 19  2  0
 14 15  2  0
 14 40  1  0
 15 16  1  0
 15 41  1  0
 16 17  1  0
 16 18  2  0
 18 19  1  0
 18 42  1  0
 19 43  1  0
 20 44  1  0
 21 22  1  0
 21 45  1  0
 22 23  1  0
 22 27  2  0
 23 24  2  0
 23 46  1  0
 24 25  1  0
 24 47  1  0
 25 26  2  0
 25 28  1  0
 26 27  1  0
 26 48  1  0
 27 49  1  0
 28 29  1  0
 28 32  1  0
 28 50  1  6
 29 30  1  0
 29 31  1  0
 30 51  1  0
 30 52  1  0
 30 53  1  0
 31 54  1  0
 31 55  1  0
 31 56  1  0
 32 33  1  0
 32 57  1  0
 32 58  1  0
 33 36  1  0
 33 37  1  0
 33 61  1  0
 34 35  1  0
 34 59  1  0
 35 60  1  0
M  CHG  1  33   1
M  END
>  <s_epik_cmdline>  (12) 
J2VwaWtfcHl0aG9uJywgJy1waCcsICc3LjAwMDAwMCcsICctcGh0JywgJzIuMDAwMDAwJywgJy1tcycsICcxNicsICctdG4nLCAnOCcsICctbWEnLCAnMjAwJywgJy1pbWFlJywgJzxpbmZpbGUubWFlPicsICctb21hZScsICc8b3V0ZmlsZS5tYWU+Jw==

>  <s_epik_input>  (12) 
RmMxW2NIXVtjSF1jKFtjSF1bY0hdMSlPYzJuYyhbTkhdYzNbY0hdW2NIXWMoW2NIXVtjSF0zKVtDQEhdKE4oW0NIM10pW0NIM10pW0NIMl1bTkgyXSluYyhbY0hdMilPYzRbY0hdW2NIXWMoRilbY0hdW2NIXTQ=

>  <s_i_glide_gridfile>  (12) 
ATP-Grid

>  <s_lp_Force_Field>  (12) 
OPLS_2005

>  <s_lp_Variant>  (12) 
rxn102c____EMOL13081280____EMOL27507560-2

>  <s_lp_label>  (12) 
2671_sdstereoexpander_2_neutralizer_1_epik_1_stereoizer_1

>  <s_m_source_file>  (12) 
ATP-VSW-LIGPREP-002-in.maegz

>  <s_sd_BIOSOLVEIT.INFINISEE\_QUERY\_NAME>  (12) 
Ref-Lig

>  <s_sd_BIOSOLVEIT.INFINISEE\_QUERY\_SMILES>  (12) 
S(c1nc2c(cc1C[NH2+]Cc3ccc(cc3)C[NH+](C)C)cccc2)Cc4ccccc4

>  <s_sd_BIOSOLVEIT.INFINISEE\_REACTION\_NAME>  (12) 
rxn102c

>  <s_sd_BIOSOLVEIT.INFINISEE\_REAGENT1\_NAME>  (12) 
EMOL13081280

>  <s_sd_BIOSOLVEIT.INFINISEE\_REAGENT1\_SMILES>  (12) 
Clc1ccc(cc1)C(N(C)C)CN

>  <s_sd_BIOSOLVEIT.INFINISEE\_REAGENT2\_NAME>  (12) 
EMOL27507560

>  <s_sd_BIOSOLVEIT.INFINISEE\_REAGENT2\_SMILES>  (12) 
Fc1ccc(Oc2nc(nc(Oc3ccc(F)cc3)c2)N)cc1

>  <s_sd_BIOSOLVEIT.INFINISEE\_SPACE>  (12) 
eXplore_7tr_2022-12

>  <s_vsw_compound_code>  (12) 
85442

>  <s_vsw_variant>  (12) 
85442-2

>  <r_epik_Charging_Adjusted_Penalty>  (12) 
0.042882470157395401

>  <r_epik_Ionization_Penalty>  (12) 
0.013100000000000001

>  <r_epik_Ionization_Penalty_Charging>  (12) 
0.0054999999999999997

>  <r_epik_Ionization_Penalty_Neutral>  (12) 
0.0076

>  <r_epik_State_Penalty>  (12) 
0.0373

>  <r_i_docking_score>  (12) 
-4.6286329288577699

>  <r_i_glide_ecoul>  (12) 
-8.6309041976928693

>  <r_i_glide_eff_state_penalty>  (12) 
0.0373

>  <r_i_glide_einternal>  (12) 
16.056491851806602

>  <r_i_glide_emodel>  (12) 
-49.634571736642997

>  <r_i_glide_energy>  (12) 
-41.885397911071799

>  <r_i_glide_erotb>  (12) 
0.61952098774212105

>  <r_i_glide_esite>  (12) 
-0.19756084395878601

>  <r_i_glide_evdw>  (12) 
-33.254493713378899

>  <r_i_glide_gscore>  (12) 
-4.66593292885777

>  <r_i_glide_hbond>  (12) 
-0.20000000000000001

>  <r_i_glide_ligand_efficiency>  (12) 
-0.13224665511022199

>  <r_i_glide_ligand_efficiency_ln>  (12) 
-1.0160876548573501

>  <r_i_glide_ligand_efficiency_sa>  (12) 
-0.43258757765351002

>  <r_i_glide_lipo>  (12) 
-1.33416579463541

>  <r_i_glide_metal>  (12) 
-0

>  <r_i_glide_rewards>  (12) 
-0.59636696268282097

>  <r_lp_Energy>  (12) 
27.75104

>  <r_lp_tautomer_probability>  (12) 
0.99999999991856403

>  <r_qp_ACxDN^.5/SA>  (12) 
0.0135756

>  <r_qp_CIQPlogS>  (12) 
-5.5010000000000003

>  <r_qp_EA(eV)>  (12) 
0.59299999999999997

>  <r_qp_FISA>  (12) 
72.602999999999994

>  <r_qp_FOSA>  (12) 
179.108

>  <r_qp_IP(eV)>  (12) 
8.5299999999999994

>  <r_qp_Jm>  (12) 
0.000216500022832566

>  <r_qp_PISA>  (12) 
483.56299999999999

>  <r_qp_PSA>  (12) 
75.420000000000002

>  <r_qp_PercentHumanOralAbsorption>  (12) 
92.715999999999994

>  <r_qp_QPPCaco>  (12) 
126.24299999999999

>  <r_qp_QPPMDCK>  (12) 
211.71299999999999

>  <r_qp_QPlogBB>  (12) 
0.13900000000000001

>  <r_qp_QPlogHERG>  (12) 
-9.2560000000000002

>  <r_qp_QPlogKhsa>  (12) 
0.76500000000000001

>  <r_qp_QPlogKp>  (12) 
-4.319

>  <r_qp_QPlogPC16>  (12) 
16.202000000000002

>  <r_qp_QPlogPo/w>  (12) 
4.8099999999999996

>  <r_qp_QPlogPoct>  (12) 
25.065999999999999

>  <r_qp_QPlogPw>  (12) 
14.121

>  <r_qp_QPlogS>  (12) 
-5.024

>  <r_qp_QPpolrz>  (12) 
50.988999999999997

>  <r_qp_SASA>  (12) 
829.30799999999999

>  <r_qp_SAamideO>  (12) 
0

>  <r_qp_SAfluorine>  (12) 
94.034999999999997

>  <r_qp_WPSA>  (12) 
94.034999999999997

>  <r_qp_accptHB>  (12) 
6.5

>  <r_qp_dip^2/V>  (12) 
0.0012788000000000001

>  <r_qp_dipole>  (12) 
1.3720000000000001

>  <r_qp_donorHB>  (12) 
3

>  <r_qp_glob>  (12) 
0.75491580000000003

>  <r_qp_mol_MW>  (12) 
477.51299999999998

>  <r_qp_volume>  (12) 
1472.903

>  <r_sd_BIOSOLVEIT.INFINISEE\_FTREES\_SIMILARITY>  (12) 
0.90900000000000003

>  <r_sd_BIOSOLVEIT.LOGP>  (12) 
3.5105

>  <r_sd_BIOSOLVEIT.MOLECULAR\_WEIGHT>  (12) 
479.52800000000002

>  <r_sd_BIOSOLVEIT.TPSA>  (12) 
88.349999999999994

>  <i_epik_Tot_Q>  (12) 
1

>  <i_epik_Tot_abs_Q>  (12) 
1

>  <i_f3d_flags>  (12) 
0

>  <i_i_glide_confnum>  (12) 
9

>  <i_i_glide_lignum>  (12) 
1287

>  <i_i_glide_posenum>  (12) 
1

>  <i_i_glide_rotatable_bonds>  (12) 
9

>  <i_lp_mmshare_version>  (12) 
65135

>  <i_m_ct_format>  (12) 
2

>  <i_m_source_file_index>  (12) 
2671

>  <i_qp_#NandO>  (12) 
7

>  <i_qp_#acid>  (12) 
0

>  <i_qp_#amide>  (12) 
0

>  <i_qp_#amidine>  (12) 
0

>  <i_qp_#amine>  (12) 
2

>  <i_qp_#in34>  (12) 
0

>  <i_qp_#in56>  (12) 
24

>  <i_qp_#metab>  (12) 
4

>  <i_qp_#nonHatm>  (12) 
35

>  <i_qp_#noncon>  (12) 
0

>  <i_qp_#ringatoms>  (12) 
24

>  <i_qp_#rotor>  (12) 
10

>  <i_qp_#rtvFG>  (12) 
0

>  <i_qp_#stars>  (12) 
1

>  <i_qp_CNS>  (12) 
1

>  <i_qp_HumanOralAbsorption>  (12) 
3

>  <i_qp_RuleOfFive>  (12) 
0

>  <i_qp_RuleOfThree>  (12) 
0

>  <i_sd_BIOSOLVEIT.INFINISEE\_RESULT\_RANK>  (12) 
49088

>  <i_sd_version>  (12) 
0

>  <b_lp_Chiralities_Consistent>  (12) 
1

>  <b_sd_chiral_flag>  (12) 
0

>  <canonical_id>  (12) 
ATP-HTVS-BB2B7EB3D06A

>  <compound_code>  (12) 
85442

>  <title>  (12) 
rxn102c____EMOL13081280____EMOL27507560

>  <variant>  (12) 
85442-2

>  <source_file>  (12) 
运行/运行/ATP-VSW/ATP-VSW-DOCK_HTVS_1-002_lib.maegz

>  <canonical_smiles>  (12) 
CN(C)[C@H](C[NH3+])c1ccc(Nc2nc(Oc3ccc(F)cc3)cc(Oc3ccc(F)cc3)n2)cc1

>  <scaffold>  (12) 
c1ccc(Nc2nc(Oc3ccccc3)cc(Oc3ccccc3)n2)cc1

>  <molecular_formula>  (12) 
C26H26F2N5O2+

>  <acquisition_id_v2>  (12) 
ATP-ACQ2-0012

>  <selection_arm_v2>  (12) 
scaffold_score_exploration

>  <priority_v2>  (12) 
P0

$$$$
ATP-ACQ2-0013
     RDKit          3D

 53 55  0  0  0  0  0  0  0  0999 V2000
  196.9722  184.6371  147.7184 O   0  0  0  0  0  0  0  0  0  0  0  0
  197.1791  183.9841  148.8966 C   0  0  0  0  0  0  0  0  0  0  0  0
  196.3472  184.2447  149.9979 C   0  0  0  0  0  0  0  0  0  0  0  0
  196.5465  183.5750  151.2165 C   0  0  0  0  0  0  0  0  0  0  0  0
  197.5821  182.6210  151.3556 C   0  0  0  0  0  0  0  0  0  0  0  0
  197.7838  181.9274  152.6413 C   0  0  0  0  0  0  0  0  0  0  0  0
  199.0539  181.5231  152.8660 N   0  0  0  0  0  0  0  0  0  0  0  0
  199.3542  180.8998  154.0338 C   0  0  0  0  0  0  0  0  0  0  0  0
  198.3666  180.5963  155.0073 C   0  0  0  0  0  0  0  0  0  0  0  0
  197.0478  181.0353  154.7877 C   0  0  0  0  0  0  0  0  0  0  0  0
  196.7523  181.7237  153.5913 C   0  0  0  0  0  0  0  0  0  0  0  0
  198.7307  179.8369  156.2733 C   0  0  0  0  0  0  0  0  0  0  0  0
  199.1492  178.4462  156.0048 N   0  0  0  0  0  0  0  0  0  0  0  0
  200.5649  178.3280  155.5739 C   0  0  0  0  0  0  0  0  0  0  0  0
  200.8931  176.9024  155.2047 C   0  0  0  0  0  0  0  0  0  0  0  0
  200.6316  176.4401  153.8977 C   0  0  0  0  0  0  0  0  0  0  0  0
  200.9614  175.1196  153.5335 C   0  0  0  0  0  0  0  0  0  0  0  0
  201.5372  174.2551  154.4895 C   0  0  0  0  0  0  0  0  0  0  0  0
  201.7820  174.7343  155.7933 C   0  0  0  0  0  0  0  0  0  0  0  0
  201.4743  176.0564  156.1550 C   0  0  0  0  0  0  0  0  0  0  0  0
  201.9095  172.8226  154.1253 C   0  0  0  0  0  0  0  0  0  0  0  0
  203.3605  172.6403  153.8517 N   0  0  0  0  0  0  0  0  0  0  0  0
  204.2494  173.1253  154.9301 C   0  0  0  0  0  0  0  0  0  0  0  0
  203.7657  173.1650  152.5304 C   0  0  0  0  0  0  0  0  0  0  0  0
  198.4194  182.3778  150.2414 C   0  0  0  0  0  0  0  0  0  0  0  0
  198.2250  183.0498  149.0197 C   0  0  0  0  0  0  0  0  0  0  0  0
  198.9531  177.9072  156.8377 H   0  0  0  0  0  0  0  0  0  0  0  0
  196.2069  185.1914  147.7208 H   0  0  0  0  0  0  0  0  0  0  0  0
  195.5453  184.9615  149.9152 H   0  0  0  0  0  0  0  0  0  0  0  0
  195.9107  183.8086  152.0576 H   0  0  0  0  0  0  0  0  0  0  0  0
  200.3850  180.6264  154.1737 H   0  0  0  0  0  0  0  0  0  0  0  0
  196.2661  180.8799  155.5197 H   0  0  0  0  0  0  0  0  0  0  0  0
  195.7530  182.1048  153.4228 H   0  0  0  0  0  0  0  0  0  0  0  0
  199.4953  180.3692  156.8369 H   0  0  0  0  0  0  0  0  0  0  0  0
  197.8588  179.8096  156.9226 H   0  0  0  0  0  0  0  0  0  0  0  0
  200.7934  178.9163  154.6686 H   0  0  0  0  0  0  0  0  0  0  0  0
  201.2337  178.6698  156.3779 H   0  0  0  0  0  0  0  0  0  0  0  0
  200.1925  177.0912  153.1599 H   0  0  0  0  0  0  0  0  0  0  0  0
  200.7613  174.7692  152.5289 H   0  0  0  0  0  0  0  0  0  0  0  0
  202.2561  174.1000  156.5185 H   0  0  0  0  0  0  0  0  0  0  0  0
  201.7307  176.4270  157.1417 H   0  0  0  0  0  0  0  0  0  0  0  0
  201.6082  172.1637  154.9362 H   0  0  0  0  0  0  0  0  0  0  0  0
  201.3242  172.5046  153.2563 H   0  0  0  0  0  0  0  0  0  0  0  0
  204.2094  174.2076  155.0360 H   0  0  0  0  0  0  0  0  0  0  0  0
  205.3001  172.8838  154.7234 H   0  0  0  0  0  0  0  0  0  0  0  0
  203.9456  172.6620  155.8689 H   0  0  0  0  0  0  0  0  0  0  0  0
  203.5933  174.2423  152.4650 H   0  0  0  0  0  0  0  0  0  0  0  0
  203.2060  172.6825  151.7295 H   0  0  0  0  0  0  0  0  0  0  0  0
  204.8263  172.9885  152.3563 H   0  0  0  0  0  0  0  0  0  0  0  0
  199.2295  181.6617  150.3089 H   0  0  0  0  0  0  0  0  0  0  0  0
  198.8689  182.8422  148.1775 H   0  0  0  0  0  0  0  0  0  0  0  0
  203.4885  171.6169  153.8580 H   0  0  0  0  0  0  0  0  0  0  0  0
  198.5512  178.0695  155.2863 H   0  0  0  0  0  0  0  0  0  0  0  0
  1  2  1  0
  1 28  1  0
  2  3  1  0
  2 26  2  0
  3  4  2  0
  3 29  1  0
  4  5  1  0
  4 30  1  0
  5  6  1  0
  5 25  2  0
  6  7  1  0
  6 11  2  0
  7  8  2  0
  8  9  1  0
  8 31  1  0
  9 10  2  0
  9 12  1  0
 10 11  1  0
 10 32  1  0
 11 33  1  0
 12 13  1  0
 12 34  1  0
 12 35  1  0
 13 14  1  0
 13 27  1  0
 13 53  1  0
 14 15  1  0
 14 36  1  0
 14 37  1  0
 15 16  1  0
 15 20  2  0
 16 17  2  0
 16 38  1  0
 17 18  1  0
 17 39  1  0
 18 19  2  0
 18 21  1  0
 19 20  1  0
 19 40  1  0
 20 41  1  0
 21 22  1  0
 21 42  1  0
 21 43  1  0
 22 23  1  0
 22 24  1  0
 22 52  1  0
 23 44  1  0
 23 45  1  0
 23 46  1  0
 24 47  1  0
 24 48  1  0
 24 49  1  0
 25 26  1  0
 25 50  1  0
 26 51  1  0
M  CHG  2  13   1  22   1
M  END
>  <s_epik_cmdline>  (13) 
J2VwaWtfcHl0aG9uJywgJy1waCcsICc3LjAwMDAwMCcsICctcGh0JywgJzIuMDAwMDAwJywgJy1tcycsICcxNicsICctdG4nLCAnOCcsICctbWEnLCAnMjAwJywgJy1pbWFlJywgJzxpbmZpbGUubWFlPicsICctb21hZScsICc8b3V0ZmlsZS5tYWU+Jw==

>  <s_epik_input>  (13) 
W09IXWMxW2NIXVtjSF1jKFtjSF1bY0hdMSktYzJuW2NIXWMoW2NIXVtjSF0yKVtDSDJdW05IXVtDSDJdYzNbY0hdW2NIXWMoW2NIXVtjSF0zKVtDSDJdTihbQ0gzXSlbQ0gzXQ==

>  <s_i_glide_gridfile>  (13) 
ATP-Grid

>  <s_lp_Force_Field>  (13) 
OPLS_2005

>  <s_lp_Variant>  (13) 
WXDL_15E____QS5063____LN00244457____BT0555-1

>  <s_lp_label>  (13) 
627_sdstereoexpander_1_neutralizer_1_epik_1_stereoizer_1

>  <s_m_source_file>  (13) 
ATP-VSW-LIGPREP-002-in.maegz

>  <s_sd_BIOSOLVEIT.INFINISEE\_QUERY\_NAME>  (13) 
Ref-Lig

>  <s_sd_BIOSOLVEIT.INFINISEE\_QUERY\_SMILES>  (13) 
S(c1nc2c(cc1C[NH2+]Cc3ccc(cc3)C[NH+](C)C)cccc2)Cc4ccccc4

>  <s_sd_BIOSOLVEIT.INFINISEE\_REACTION\_NAME>  (13) 
WXDL_15E

>  <s_sd_BIOSOLVEIT.INFINISEE\_REAGENT1\_NAME>  (13) 
QS5063

>  <s_sd_BIOSOLVEIT.INFINISEE\_REAGENT1\_SMILES>  (13) 
O=Cc1ccc(cc1)CN(C)C

>  <s_sd_BIOSOLVEIT.INFINISEE\_REAGENT2\_NAME>  (13) 
LN00244457

>  <s_sd_BIOSOLVEIT.INFINISEE\_REAGENT2\_SMILES>  (13) 
Brc1ncc(cc1)CNC(=O)OC(C)(C)C

>  <s_sd_BIOSOLVEIT.INFINISEE\_REAGENT3\_NAME>  (13) 
BT0555

>  <s_sd_BIOSOLVEIT.INFINISEE\_REAGENT3\_SMILES>  (13) 
Oc1ccc(cc1)B(O)O

>  <s_sd_BIOSOLVEIT.INFINISEE\_SPACE>  (13) 
GalaXi_12bn_2023-03

>  <s_vsw_compound_code>  (13) 
20034

>  <s_vsw_variant>  (13) 
20034-1

>  <r_epik_Charging_Adjusted_Penalty>  (13) 
0.36260264626329503

>  <r_epik_Ionization_Penalty>  (13) 
0.18129999999999999

>  <r_epik_Ionization_Penalty_Charging>  (13) 
0.1799

>  <r_epik_Ionization_Penalty_Neutral>  (13) 
0.0014

>  <r_epik_State_Penalty>  (13) 
0.1827

>  <r_i_docking_score>  (13) 
-6.6614367029427797

>  <r_i_glide_ecoul>  (13) 
-20.883989334106399

>  <r_i_glide_eff_state_penalty>  (13) 
0.1827

>  <r_i_glide_einternal>  (13) 
3.3178658485412602

>  <r_i_glide_emodel>  (13) 
-75.011169116128798

>  <r_i_glide_energy>  (13) 
-45.189605712890597

>  <r_i_glide_erotb>  (13) 
0.93585446189056398

>  <r_i_glide_esite>  (13) 
-0.20000000000000001

>  <r_i_glide_evdw>  (13) 
-24.305616378784201

>  <r_i_glide_gscore>  (13) 
-6.8441367029427802

>  <r_i_glide_hbond>  (13) 
-0.62646890064982197

>  <r_i_glide_ligand_efficiency>  (13) 
-0.25620910395933799

>  <r_i_glide_ligand_efficiency_ln>  (13) 
-1.5644165517294699

>  <r_i_glide_ligand_efficiency_sa>  (13) 
-0.75901846234539405

>  <r_i_glide_lipo>  (13) 
-1.3542972269465201

>  <r_i_glide_metal>  (13) 
-0

>  <r_i_glide_rewards>  (13) 
-1.25134581818182

>  <r_lp_Energy>  (13) 
17.966108999999999

>  <r_lp_tautomer_probability>  (13) 
0.999999999997365

>  <r_qp_ACxDN^.5/SA>  (13) 
0.0102638

>  <r_qp_CIQPlogS>  (13) 
-3.1120000000000001

>  <r_qp_EA(eV)>  (13) 
0.45400000000000001

>  <r_qp_FISA>  (13) 
80.313000000000002

>  <r_qp_FOSA>  (13) 
250.41

>  <r_qp_IP(eV)>  (13) 
8.7789999999999999

>  <r_qp_Jm>  (13) 
0.00081218796813291002

>  <r_qp_PISA>  (13) 
392.654

>  <r_qp_PSA>  (13) 
52.308999999999997

>  <r_qp_PercentHumanOralAbsorption>  (13) 
84.254999999999995

>  <r_qp_QPPCaco>  (13) 
106.68300000000001

>  <r_qp_QPPMDCK>  (13) 
53.901000000000003

>  <r_qp_QPlogBB>  (13) 
-0.012999999999999999

>  <r_qp_QPlogHERG>  (13) 
-8.4960000000000004

>  <r_qp_QPlogKhsa>  (13) 
0.57399999999999995

>  <r_qp_QPlogKp>  (13) 
-4.9740000000000002

>  <r_qp_QPlogPC16>  (13) 
13.712999999999999

>  <r_qp_QPlogPo/w>  (13) 
3.5880000000000001

>  <r_qp_QPlogPoct>  (13) 
19.489000000000001

>  <r_qp_QPlogPw>  (13) 
11.013

>  <r_qp_QPlogS>  (13) 
-3.6579999999999999

>  <r_qp_QPpolrz>  (13) 
42.420000000000002

>  <r_qp_SASA>  (13) 
723.37699999999995

>  <r_qp_SAamideO>  (13) 
0

>  <r_qp_SAfluorine>  (13) 
0

>  <r_qp_WPSA>  (13) 
0

>  <r_qp_accptHB>  (13) 
5.25

>  <r_qp_dip^2/V>  (13) 
0.0027087999999999999

>  <r_qp_dipole>  (13) 
1.839

>  <r_qp_donorHB>  (13) 
2

>  <r_qp_glob>  (13) 
0.77512389999999998

>  <r_qp_mol_MW>  (13) 
347.459

>  <r_qp_volume>  (13) 
1248.4069999999999

>  <r_sd_BIOSOLVEIT.INFINISEE\_FTREES\_SIMILARITY>  (13) 
0.91700000000000004

>  <r_sd_BIOSOLVEIT.LOGP>  (13) 
1.3623000000000001

>  <r_sd_BIOSOLVEIT.MOLECULAR\_WEIGHT>  (13) 
349.47500000000002

>  <r_sd_BIOSOLVEIT.TPSA>  (13) 
54.170000000000002

>  <i_epik_Tot_Q>  (13) 
2

>  <i_epik_Tot_abs_Q>  (13) 
2

>  <i_f3d_flags>  (13) 
0

>  <i_i_glide_confnum>  (13) 
7

>  <i_i_glide_lignum>  (13) 
174

>  <i_i_glide_posenum>  (13) 
19

>  <i_i_glide_rotatable_bonds>  (13) 
8

>  <i_lp_mmshare_version>  (13) 
65135

>  <i_m_ct_format>  (13) 
2

>  <i_m_source_file_index>  (13) 
627

>  <i_qp_#NandO>  (13) 
4

>  <i_qp_#acid>  (13) 
0

>  <i_qp_#amide>  (13) 
0

>  <i_qp_#amidine>  (13) 
0

>  <i_qp_#amine>  (13) 
2

>  <i_qp_#in34>  (13) 
0

>  <i_qp_#in56>  (13) 
18

>  <i_qp_#metab>  (13) 
7

>  <i_qp_#nonHatm>  (13) 
26

>  <i_qp_#noncon>  (13) 
0

>  <i_qp_#ringatoms>  (13) 
18

>  <i_qp_#rotor>  (13) 
8

>  <i_qp_#rtvFG>  (13) 
0

>  <i_qp_#stars>  (13) 
0

>  <i_qp_CNS>  (13) 
1

>  <i_qp_HumanOralAbsorption>  (13) 
2

>  <i_qp_RuleOfFive>  (13) 
0

>  <i_qp_RuleOfThree>  (13) 
1

>  <i_sd_BIOSOLVEIT.INFINISEE\_RESULT\_RANK>  (13) 
24092

>  <i_sd_version>  (13) 
0

>  <b_lp_Chiralities_Consistent>  (13) 
1

>  <b_sd_chiral_flag>  (13) 
0

>  <canonical_id>  (13) 
ATP-HTVS-CEDCE5F1BEB7

>  <compound_code>  (13) 
20034

>  <title>  (13) 
WXDL_15E____QS5063____LN00244457____BT0555

>  <variant>  (13) 
20034-1

>  <source_file>  (13) 
运行/运行/ATP-VSW/ATP-VSW-DOCK_HTVS_1-002_lib.maegz

>  <canonical_smiles>  (13) 
C[NH+](C)Cc1ccc(C[NH2+]Cc2ccc(-c3ccc(O)cc3)nc2)cc1

>  <scaffold>  (13) 
c1ccc(C[NH2+]Cc2ccc(-c3ccccc3)nc2)cc1

>  <molecular_formula>  (13) 
C22H27N3O+2

>  <acquisition_id_v2>  (13) 
ATP-ACQ2-0013

>  <selection_arm_v2>  (13) 
exploitation

>  <priority_v2>  (13) 
P0

$$$$
ATP-ACQ2-0014
     RDKit          3D

 63 67  0  0  0  0  0  0  0  0999 V2000
  194.7538  183.4568  159.3611 N   0  0  0  0  0  0  0  0  0  0  0  0
  195.3893  184.5747  158.9381 C   0  0  0  0  0  0  0  0  0  0  0  0
  196.5338  184.5621  158.0969 C   0  0  0  0  0  0  0  0  0  0  0  0
  197.0365  183.2958  157.7306 C   0  0  0  0  0  0  0  0  0  0  0  0
  196.3652  182.1387  158.1425 C   0  0  0  0  0  0  0  0  0  0  0  0
  195.2235  182.2632  158.9482 C   0  0  0  0  0  0  0  0  0  0  0  0
  197.1451  185.8180  157.6139 C   0  0  0  0  0  0  0  0  0  0  0  0
  197.0245  186.9041  158.3626 N   0  0  0  0  0  0  0  0  0  0  0  0
  197.6492  187.9085  157.7102 N   0  0  0  0  0  0  0  0  0  0  0  0
  197.7162  189.2197  158.2614 C   0  0  0  0  0  0  0  0  0  0  0  0
  198.3476  190.2694  157.5489 C   0  0  0  0  0  0  0  0  0  0  0  0
  198.4092  191.5674  158.0865 C   0  0  0  0  0  0  0  0  0  0  0  0
  197.8452  191.8371  159.3471 C   0  0  0  0  0  0  0  0  0  0  0  0
  197.2138  190.8065  160.0667 C   0  0  0  0  0  0  0  0  0  0  0  0
  197.1486  189.5072  159.5302 C   0  0  0  0  0  0  0  0  0  0  0  0
  198.1615  187.4406  156.5157 C   0  0  0  0  0  0  0  0  0  0  0  0
  197.8567  186.1128  156.4001 C   0  0  0  0  0  0  0  0  0  0  0  0
  198.2130  185.2331  155.2246 C   0  0  0  0  0  0  0  0  0  0  0  0
  196.9966  184.9295  154.4416 N   0  0  0  0  0  0  0  0  0  0  0  0
  197.1936  183.9826  153.3244 C   0  0  0  0  0  0  0  0  0  0  0  0
  197.6083  182.5986  153.8059 C   0  0  0  0  0  0  0  0  0  0  0  0
  198.8737  182.0772  153.4571 C   0  0  0  0  0  0  0  0  0  0  0  0
  199.2432  180.7933  153.8950 C   0  0  0  0  0  0  0  0  0  0  0  0
  198.3757  180.0296  154.7058 C   0  0  0  0  0  0  0  0  0  0  0  0
  197.1212  180.5578  155.0683 C   0  0  0  0  0  0  0  0  0  0  0  0
  196.7424  181.8328  154.6113 C   0  0  0  0  0  0  0  0  0  0  0  0
  198.7926  178.6614  155.2031 C   0  0  0  0  0  0  0  0  0  0  0  0
  199.5550  178.7359  156.4829 N   0  0  0  0  0  0  0  0  0  0  0  0
  200.1110  177.4504  156.9330 C   0  0  0  0  0  0  0  0  0  0  0  0
  201.1242  177.8366  158.0162 C   0  0  0  0  0  0  0  0  0  0  0  0
  201.5387  179.2894  157.7133 C   0  0  0  0  0  0  0  0  0  0  0  0
  200.7066  179.6701  156.4944 C   0  0  0  0  0  0  0  0  0  0  0  0
  196.2933  184.5230  155.0420 H   0  0  0  0  0  0  0  0  0  0  0  0
  194.9574  185.5043  159.2876 H   0  0  0  0  0  0  0  0  0  0  0  0
  197.9249  183.1476  157.1399 H   0  0  0  0  0  0  0  0  0  0  0  0
  196.7224  181.1655  157.8393 H   0  0  0  0  0  0  0  0  0  0  0  0
  194.7179  181.3713  159.2966 H   0  0  0  0  0  0  0  0  0  0  0  0
  198.7907  190.1004  156.5803 H   0  0  0  0  0  0  0  0  0  0  0  0
  198.8918  192.3587  157.5325 H   0  0  0  0  0  0  0  0  0  0  0  0
  197.9009  192.8341  159.7571 H   0  0  0  0  0  0  0  0  0  0  0  0
  196.7791  191.0072  161.0349 H   0  0  0  0  0  0  0  0  0  0  0  0
  196.6582  188.7348  160.1032 H   0  0  0  0  0  0  0  0  0  0  0  0
  198.7041  188.0769  155.8335 H   0  0  0  0  0  0  0  0  0  0  0  0
  198.9275  185.7345  154.5662 H   0  0  0  0  0  0  0  0  0  0  0  0
  198.7366  184.3312  155.5232 H   0  0  0  0  0  0  0  0  0  0  0  0
  196.2683  183.8893  152.7529 H   0  0  0  0  0  0  0  0  0  0  0  0
  197.9470  184.3869  152.6454 H   0  0  0  0  0  0  0  0  0  0  0  0
  199.5612  182.6542  152.8607 H   0  0  0  0  0  0  0  0  0  0  0  0
  200.2199  180.4138  153.6332 H   0  0  0  0  0  0  0  0  0  0  0  0
  196.4576  180.0017  155.7177 H   0  0  0  0  0  0  0  0  0  0  0  0
  195.7779  182.2174  154.9046 H   0  0  0  0  0  0  0  0  0  0  0  0
  197.9173  178.0380  155.3647 H   0  0  0  0  0  0  0  0  0  0  0  0
  199.3872  178.1861  154.4207 H   0  0  0  0  0  0  0  0  0  0  0  0
  199.3498  176.7495  157.2774 H   0  0  0  0  0  0  0  0  0  0  0  0
  200.6432  176.9771  156.0995 H   0  0  0  0  0  0  0  0  0  0  0  0
  200.6689  177.7664  159.0042 H   0  0  0  0  0  0  0  0  0  0  0  0
  201.9542  177.1423  157.9814 H   0  0  0  0  0  0  0  0  0  0  0  0
  201.2841  179.9469  158.5259 H   0  0  0  0  0  0  0  0  0  0  0  0
  202.6061  179.4218  157.5287 H   0  0  0  0  0  0  0  0  0  0  0  0
  201.3154  179.4887  155.5942 H   0  0  0  0  0  0  0  0  0  0  0  0
  200.4278  180.7221  156.5090 H   0  0  0  0  0  0  0  0  0  0  0  0
  198.9131  178.9979  157.2201 H   0  0  0  0  0  0  0  0  0  0  0  0
  196.6102  185.7919  154.0762 H   0  0  0  0  0  0  0  0  0  0  0  0
  1  2  1  0
  1  6  2  0
  2  3  2  0
  2 34  1  0
  3  4  1  0
  3  7  1  0
  4  5  2  0
  4 35  1  0
  5  6  1  0
  5 36  1  0
  6 37  1  0
  7  8  2  0
  7 17  1  0
  8  9  1  0
  9 10  1  0
  9 16  1  0
 10 11  2  0
 10 15  1  0
 11 12  1  0
 11 38  1  0
 12 13  2  0
 12 39  1  0
 13 14  1  0
 13 40  1  0
 14 15  2  0
 14 41  1  0
 15 42  1  0
 16 17  2  0
 16 43  1  0
 17 18  1  0
 18 19  1  0
 18 44  1  0
 18 45  1  0
 19 20  1  0
 19 33  1  0
 19 63  1  0
 20 21  1  0
 20 46  1  0
 20 47  1  0
 21 22  1  0
 21 26  2  0
 22 23  2  0
 22 48  1  0
 23 24  1  0
 23 49  1  0
 24 25  2  0
 24 27  1  0
 25 26  1  0
 25 50  1  0
 26 51  1  0
 27 28  1  0
 27 52  1  0
 27 53  1  0
 28 29  1  0
 28 32  1  0
 28 62  1  0
 29 30  1  0
 29 54  1  0
 29 55  1  0
 30 31  1  0
 30 56  1  0
 30 57  1  0
 31 32  1  0
 31 58  1  0
 31 59  1  0
 32 60  1  0
 32 61  1  0
M  CHG  2  19   1  28   1
M  END
>  <s_epik_cmdline>  (14) 
J2VwaWtfcHl0aG9uJywgJy1waCcsICc3LjAwMDAwMCcsICctcGh0JywgJzIuMDAwMDAwJywgJy1tcycsICcxNicsICctdG4nLCAnOCcsICctbWEnLCAnMjAwJywgJy1pbWFlJywgJzxpbmZpbGUubWFlPicsICctb21hZScsICc8b3V0ZmlsZS5tYWU+Jw==

>  <s_epik_input>  (14) 
W2NIXTFbY0hdW2NIXW5bY0hdYzEtYzJubigtYzNbY0hdW2NIXVtjSF1bY0hdW2NIXTMpW2NIXWMyW0NIMl1bTkhdW0NIMl1jNFtjSF1bY0hdYyhbY0hdW2NIXTQpW0NIMl1ONVtDSDJdW0NIMl1bQ0gyXVtDSDJdNQ==

>  <s_i_glide_gridfile>  (14) 
ATP-Grid

>  <s_lp_Force_Field>  (14) 
OPLS_2005

>  <s_lp_Variant>  (14) 
m_270004bbb____8288996____7547738-1

>  <s_lp_label>  (14) 
1194_sdstereoexpander_1_neutralizer_1_epik_1_stereoizer_1

>  <s_m_source_file>  (14) 
ATP-VSW-LIGPREP-001-in.maegz

>  <s_sd_BIOSOLVEIT.INFINISEE\_QUERY\_NAME>  (14) 
Ref-Lig

>  <s_sd_BIOSOLVEIT.INFINISEE\_QUERY\_SMILES>  (14) 
S(c1nc2c(cc1C[NH2+]Cc3ccc(cc3)C[NH+](C)C)cccc2)Cc4ccccc4

>  <s_sd_BIOSOLVEIT.INFINISEE\_REACTION\_NAME>  (14) 
m_270004bbb

>  <s_sd_BIOSOLVEIT.INFINISEE\_REAGENT1\_SMILES>  (14) 
[R1*]NCc1ccc(cc1)CN2CCCC2

>  <s_sd_BIOSOLVEIT.INFINISEE\_REAGENT2\_SMILES>  (14) 
[R1*]CC=1C(=NN(c2ccccc2)C1)c3cnccc3

>  <s_sd_BIOSOLVEIT.INFINISEE\_SPACE>  (14) 
REALSpace_44bn_2023-08

>  <s_vsw_compound_code>  (14) 
38177

>  <s_vsw_variant>  (14) 
38177-1

>  <r_epik_Charging_Adjusted_Penalty>  (14) 
0.22586618430728

>  <r_epik_Ionization_Penalty>  (14) 
0.1169

>  <r_epik_Ionization_Penalty_Charging>  (14) 
0.1139

>  <r_epik_Ionization_Penalty_Neutral>  (14) 
0.0030999999999999999

>  <r_epik_State_Penalty>  (14) 
0.112

>  <r_i_docking_score>  (14) 
-4.6576562853469499

>  <r_i_glide_ecoul>  (14) 
-11.0505104064941

>  <r_i_glide_eff_state_penalty>  (14) 
0.112

>  <r_i_glide_einternal>  (14) 
2.2352814674377401

>  <r_i_glide_emodel>  (14) 
-70.281259387761196

>  <r_i_glide_energy>  (14) 
-48.929336547851598

>  <r_i_glide_erotb>  (14) 
0.87630884457119895

>  <r_i_glide_esite>  (14) 
-0.094967817878864005

>  <r_i_glide_evdw>  (14) 
-37.878826141357401

>  <r_i_glide_gscore>  (14) 
-4.76965628534695

>  <r_i_glide_hbond>  (14) 
-0.083527251195898503

>  <r_i_glide_ligand_efficiency>  (14) 
-0.14555175891709199

>  <r_i_glide_ligand_efficiency_ln>  (14) 
-1.0429762052043601

>  <r_i_glide_ligand_efficiency_sa>  (14) 
-0.46209802990779097

>  <r_i_glide_lipo>  (14) 
-1.0471583439457499

>  <r_i_glide_metal>  (14) 
-0

>  <r_i_glide_rewards>  (14) 
-0.86879384885564404

>  <r_lp_Energy>  (14) 
38.888362999999998

>  <r_lp_tautomer_probability>  (14) 
1

>  <r_qp_ACxDN^.5/SA>  (14) 
0.0077134999999999999

>  <r_qp_CIQPlogS>  (14) 
-4.7489999999999997

>  <r_qp_EA(eV)>  (14) 
0.73299999999999998

>  <r_qp_FISA>  (14) 
44.170999999999999

>  <r_qp_FOSA>  (14) 
282.70800000000003

>  <r_qp_IP(eV)>  (14) 
8.8390000000000004

>  <r_qp_Jm>  (14) 
0.00036576059575508298

>  <r_qp_PISA>  (14) 
450.98000000000002

>  <r_qp_PSA>  (14) 
44.491

>  <r_qp_PercentHumanOralAbsorption>  (14) 
100

>  <r_qp_QPPCaco>  (14) 
234.869

>  <r_qp_QPPMDCK>  (14) 
126.48699999999999

>  <r_qp_QPlogBB>  (14) 
0.52600000000000002

>  <r_qp_QPlogHERG>  (14) 
-8.5500000000000007

>  <r_qp_QPlogKhsa>  (14) 
1.0580000000000001

>  <r_qp_QPlogKp>  (14) 
-4.2939999999999996

>  <r_qp_QPlogPC16>  (14) 
15.304

>  <r_qp_QPlogPo/w>  (14) 
4.9100000000000001

>  <r_qp_QPlogPoct>  (14) 
21.759

>  <r_qp_QPlogPw>  (14) 
11.01

>  <r_qp_QPlogS>  (14) 
-4.7699999999999996

>  <r_qp_QPpolrz>  (14) 
51.506999999999998

>  <r_qp_SASA>  (14) 
777.85900000000004

>  <r_qp_SAamideO>  (14) 
0

>  <r_qp_SAfluorine>  (14) 
0

>  <r_qp_WPSA>  (14) 
0

>  <r_qp_accptHB>  (14) 
6

>  <r_qp_dip^2/V>  (14) 
0.0052636000000000002

>  <r_qp_dipole>  (14) 
2.7429999999999999

>  <r_qp_donorHB>  (14) 
1

>  <r_qp_glob>  (14) 
0.78894129999999996

>  <r_qp_mol_MW>  (14) 
423.56

>  <r_qp_volume>  (14) 
1429.4570000000001

>  <r_sd_BIOSOLVEIT.INFINISEE\_FTREES\_SIMILARITY>  (14) 
0.91100000000000003

>  <r_sd_BIOSOLVEIT.LOGP>  (14) 
2.3765999999999998

>  <r_sd_BIOSOLVEIT.MOLECULAR\_WEIGHT>  (14) 
425.577

>  <r_sd_BIOSOLVEIT.TPSA>  (14) 
51.759999999999998

>  <i_epik_Tot_Q>  (14) 
2

>  <i_epik_Tot_abs_Q>  (14) 
2

>  <i_f3d_flags>  (14) 
0

>  <i_i_glide_confnum>  (14) 
9

>  <i_i_glide_lignum>  (14) 
303

>  <i_i_glide_posenum>  (14) 
2

>  <i_i_glide_rotatable_bonds>  (14) 
8

>  <i_lp_mmshare_version>  (14) 
65135

>  <i_m_ct_format>  (14) 
2

>  <i_m_source_file_index>  (14) 
1194

>  <i_qp_#NandO>  (14) 
5

>  <i_qp_#acid>  (14) 
0

>  <i_qp_#amide>  (14) 
0

>  <i_qp_#amidine>  (14) 
0

>  <i_qp_#amine>  (14) 
2

>  <i_qp_#in34>  (14) 
0

>  <i_qp_#in56>  (14) 
28

>  <i_qp_#metab>  (14) 
7

>  <i_qp_#nonHatm>  (14) 
32

>  <i_qp_#noncon>  (14) 
4

>  <i_qp_#ringatoms>  (14) 
28

>  <i_qp_#rotor>  (14) 
6

>  <i_qp_#rtvFG>  (14) 
0

>  <i_qp_#stars>  (14) 
1

>  <i_qp_CNS>  (14) 
2

>  <i_qp_HumanOralAbsorption>  (14) 
3

>  <i_qp_RuleOfFive>  (14) 
0

>  <i_qp_RuleOfThree>  (14) 
1

>  <i_sd_BIOSOLVEIT.INFINISEE\_REAGENT1\_NAME>  (14) 
8288996

>  <i_sd_BIOSOLVEIT.INFINISEE\_REAGENT2\_NAME>  (14) 
7547738

>  <i_sd_BIOSOLVEIT.INFINISEE\_RESULT\_RANK>  (14) 
39762

>  <i_sd_version>  (14) 
0

>  <b_lp_Chiralities_Consistent>  (14) 
1

>  <b_sd_chiral_flag>  (14) 
0

>  <canonical_id>  (14) 
ATP-HTVS-83F819F668B2

>  <compound_code>  (14) 
38177

>  <title>  (14) 
m_270004bbb____8288996____7547738

>  <variant>  (14) 
38177-1

>  <source_file>  (14) 
运行/运行/ATP-VSW/ATP-VSW-DOCK_HTVS_1-001_lib/ATP-VSW-DOCK_HTVS_1-001_lib

>  <canonical_smiles>  (14) 
c1ccc(-n2cc(C[NH2+]Cc3ccc(C[NH+]4CCCC4)cc3)c(-c3cccnc3)n2)cc1

>  <scaffold>  (14) 
c1ccc(-n2cc(C[NH2+]Cc3ccc(C[NH+]4CCCC4)cc3)c(-c3cccnc3)n2)cc1

>  <molecular_formula>  (14) 
C27H31N5+2

>  <acquisition_id_v2>  (14) 
ATP-ACQ2-0014

>  <selection_arm_v2>  (14) 
local_structure_bridge

>  <priority_v2>  (14) 
P0

$$$$
ATP-ACQ2-0015
     RDKit          3D

 42 45  0  0  0  0  0  0  0  0999 V2000
  196.3505  179.8453  149.9388 Cl  0  0  0  0  0  0  0  0  0  0  0  0
  196.6288  180.2817  151.5882 C   0  0  0  0  0  0  0  0  0  0  0  0
  196.9450  179.2856  152.5312 C   0  0  0  0  0  0  0  0  0  0  0  0
  197.1132  179.6217  153.8893 C   0  0  0  0  0  0  0  0  0  0  0  0
  197.0439  180.9653  154.3040 C   0  0  0  0  0  0  0  0  0  0  0  0
  196.7470  181.9685  153.3468 C   0  0  0  0  0  0  0  0  0  0  0  0
  196.5249  181.6242  151.9982 C   0  0  0  0  0  0  0  0  0  0  0  0
  197.2829  181.3174  155.7720 C   0  0  1  0  0  0  0  0  0  0  0  0
  198.6978  181.6740  156.1152 N   0  0  0  0  0  0  0  0  0  0  0  0
  199.0034  182.4643  157.1801 C   0  0  0  0  0  0  0  0  0  0  0  0
  200.1576  182.7297  157.5275 O   0  0  0  0  0  0  0  0  0  0  0  0
  197.8464  182.9958  157.9782 C   0  0  0  0  0  0  0  0  0  0  0  0
  196.5405  182.9315  157.4370 C   0  0  0  0  0  0  0  0  0  0  0  0
  196.3490  182.3478  156.1917 N   0  0  0  0  0  0  0  0  0  0  0  0
  195.4481  183.4612  158.1506 C   0  0  0  0  0  0  0  0  0  0  0  0
  195.6430  184.0518  159.4104 C   0  0  0  0  0  0  0  0  0  0  0  0
  196.9361  184.1099  159.9617 C   0  0  0  0  0  0  0  0  0  0  0  0
  198.0343  183.5864  159.2487 C   0  0  0  0  0  0  0  0  0  0  0  0
  199.7911  180.9953  155.3721 C   0  0  0  0  0  0  0  0  0  0  0  0
  200.1481  179.6058  155.8959 C   0  0  0  0  0  0  0  0  0  0  0  0
  200.8321  179.4667  157.1235 C   0  0  0  0  0  0  0  0  0  0  0  0
  201.1448  178.1869  157.6307 C   0  0  0  0  0  0  0  0  0  0  0  0
  200.7504  177.0331  156.9240 C   0  0  0  0  0  0  0  0  0  0  0  0
  200.0806  177.1661  155.6935 C   0  0  0  0  0  0  0  0  0  0  0  0
  199.8135  178.4447  155.1608 C   0  0  0  0  0  0  0  0  0  0  0  0
  197.0417  178.2590  152.2124 H   0  0  0  0  0  0  0  0  0  0  0  0
  197.3074  178.8471  154.6202 H   0  0  0  0  0  0  0  0  0  0  0  0
  196.6604  183.0043  153.6481 H   0  0  0  0  0  0  0  0  0  0  0  0
  196.2594  182.3906  151.2811 H   0  0  0  0  0  0  0  0  0  0  0  0
  197.0497  180.4295  156.3673 H   0  0  0  0  0  0  0  0  0  0  0  0
  195.3653  182.2626  155.8747 H   0  0  0  0  0  0  0  0  0  0  0  0
  194.4516  183.4158  157.7347 H   0  0  0  0  0  0  0  0  0  0  0  0
  194.7979  184.4558  159.9458 H   0  0  0  0  0  0  0  0  0  0  0  0
  197.0800  184.5546  160.9296 H   0  0  0  0  0  0  0  0  0  0  0  0
  199.0223  183.6408  159.6882 H   0  0  0  0  0  0  0  0  0  0  0  0
  199.5643  180.9333  154.3071 H   0  0  0  0  0  0  0  0  0  0  0  0
  200.6985  181.5967  155.3922 H   0  0  0  0  0  0  0  0  0  0  0  0
  201.1389  180.3406  157.6833 H   0  0  0  0  0  0  0  0  0  0  0  0
  201.6986  178.0898  158.5558 H   0  0  0  0  0  0  0  0  0  0  0  0
  200.9897  176.0518  157.3110 H   0  0  0  0  0  0  0  0  0  0  0  0
  199.7751  176.2818  155.1492 H   0  0  0  0  0  0  0  0  0  0  0  0
  199.3312  178.5186  154.1957 H   0  0  0  0  0  0  0  0  0  0  0  0
  1  2  1  0
  2  3  1  0
  2  7  2  0
  3  4  2  0
  3 26  1  0
  4  5  1  0
  4 27  1  0
  5  6  2  0
  5  8  1  0
  6  7  1  0
  6 28  1  0
  7 29  1  0
  8  9  1  0
  8 14  1  0
  8 30  1  1
  9 10  1  0
  9 19  1  0
 10 11  2  0
 10 12  1  0
 12 13  1  0
 12 18  2  0
 13 14  1  0
 13 15  2  0
 14 31  1  0
 15 16  1  0
 15 32  1  0
 16 17  2  0
 16 33  1  0
 17 18  1  0
 17 34  1  0
 18 35  1  0
 19 20  1  0
 19 36  1  0
 19 37  1  0
 20 21  2  0
 20 25  1  0
 21 22  1  0
 21 38  1  0
 22 23  2  0
 22 39  1  0
 23 24  1  0
 23 40  1  0
 24 25  2  0
 24 41  1  0
 25 42  1  0
M  END
>  <s_epik_Chemistry_Notes>  (15) 
This compound contains an acetal/aminal-like group ( X-CH(R)-Y where X, Y are N, S, or O) that may be acid/base labile, releasing an aldehyde.

>  <s_epik_cmdline>  (15) 
J2VwaWtfcHl0aG9uJywgJy1waCcsICc3LjAwMDAwMCcsICctcGh0JywgJzIuMDAwMDAwJywgJy1tcycsICcxNicsICctdG4nLCAnOCcsICctbWEnLCAnMjAwJywgJy1pbWFlJywgJzxpbmZpbGUubWFlPicsICctb21hZScsICc8b3V0ZmlsZS5tYWU+Jw==

>  <s_epik_input>  (15) 
W2NIXTFbY0hdW2NIXVtjSF1jKGMxMilbTkhdW0NAQEhdKGMoW2NIXVtjSF0zKVtjSF1bY0hdYzNDbClOKEMyPU8pW0NIMl1jNFtjSF1bY0hdW2NIXVtjSF1bY0hdNA==

>  <s_i_glide_gridfile>  (15) 
ATP-Grid

>  <s_lp_Force_Field>  (15) 
OPLS_2005

>  <s_lp_Variant>  (15) 
m_66bab____89518____10970556-1

>  <s_lp_label>  (15) 
1825_sdstereoexpander_1_neutralizer_1_epik_1_stereoizer_1

>  <s_m_source_file>  (15) 
ATP-VSW-LIGPREP-002-in.maegz

>  <s_sd_BIOSOLVEIT.INFINISEE\_QUERY\_NAME>  (15) 
Ref-Lig

>  <s_sd_BIOSOLVEIT.INFINISEE\_QUERY\_SMILES>  (15) 
S(c1nc2c(cc1C[NH2+]Cc3ccc(cc3)C[NH+](C)C)cccc2)Cc4ccccc4

>  <s_sd_BIOSOLVEIT.INFINISEE\_REACTION\_NAME>  (15) 
m_66bab

>  <s_sd_BIOSOLVEIT.INFINISEE\_REAGENT1\_SMILES>  (15) 
[R1*]N(C(=O)c1c(N[R2*])cccc1)Cc2ccccc2

>  <s_sd_BIOSOLVEIT.INFINISEE\_REAGENT2\_SMILES>  (15) 
[R1*]C1([R2*])CC(c2ccc(Cl)cc2)CCC1

>  <s_sd_BIOSOLVEIT.INFINISEE\_SPACE>  (15) 
REALSpace_44bn_2023-08

>  <s_vsw_compound_code>  (15) 
58370

>  <s_vsw_variant>  (15) 
58370-1

>  <r_epik_Charging_Adjusted_Penalty>  (15) 
0

>  <r_epik_Ionization_Penalty>  (15) 
0

>  <r_epik_Ionization_Penalty_Charging>  (15) 
0

>  <r_epik_Ionization_Penalty_Neutral>  (15) 
0

>  <r_epik_State_Penalty>  (15) 
-0

>  <r_i_docking_score>  (15) 
-4.2671466110497596

>  <r_i_glide_ecoul>  (15) 
-2.2772045135497998

>  <r_i_glide_eff_state_penalty>  (15) 
-0

>  <r_i_glide_einternal>  (15) 
2.12790727615356

>  <r_i_glide_emodel>  (15) 
-42.750448116341097

>  <r_i_glide_energy>  (15) 
-34.001861572265597

>  <r_i_glide_erotb>  (15) 
0.46946400384524201

>  <r_i_glide_esite>  (15) 
-0.16586820155439

>  <r_i_glide_evdw>  (15) 
-31.724657058715799

>  <r_i_glide_gscore>  (15) 
-4.2671466110497596

>  <r_i_glide_hbond>  (15) 
-0.16

>  <r_i_glide_ligand_efficiency>  (15) 
-0.17068586444198999

>  <r_i_glide_ligand_efficiency_ln>  (15) 
-1.0114416228837599

>  <r_i_glide_ligand_efficiency_sa>  (15) 
-0.499088494755076

>  <r_i_glide_lipo>  (15) 
-1.4521914742814399

>  <r_i_glide_metal>  (15) 
-0

>  <r_i_glide_rewards>  (15) 
-1.0307374090909101

>  <r_lp_Energy>  (15) 
28.234705999999999

>  <r_lp_tautomer_probability>  (15) 
1

>  <r_qp_ACxDN^.5/SA>  (15) 
0.0068897000000000003

>  <r_qp_CIQPlogS>  (15) 
-5.9550000000000001

>  <r_qp_EA(eV)>  (15) 
0.504

>  <r_qp_FISA>  (15) 
42.853000000000002

>  <r_qp_FOSA>  (15) 
41.268999999999998

>  <r_qp_IP(eV)>  (15) 
8.6370000000000005

>  <r_qp_Jm>  (15) 
0.35705695189570402

>  <r_qp_PISA>  (15) 
428.53300000000002

>  <r_qp_PSA>  (15) 
38.75

>  <r_qp_PercentHumanOralAbsorption>  (15) 
100

>  <r_qp_QPPCaco>  (15) 
3886.2240000000002

>  <r_qp_QPPMDCK>  (15) 
5053.7529999999997

>  <r_qp_QPlogBB>  (15) 
0.224

>  <r_qp_QPlogHERG>  (15) 
-5.8319999999999999

>  <r_qp_QPlogKhsa>  (15) 
0.626

>  <r_qp_QPlogKp>  (15) 
-0.60799999999999998

>  <r_qp_QPlogPC16>  (15) 
12.041

>  <r_qp_QPlogPo/w>  (15) 
4.6680000000000001

>  <r_qp_QPlogPoct>  (15) 
17.085000000000001

>  <r_qp_QPlogPw>  (15) 
9.3100000000000005

>  <r_qp_QPlogS>  (15) 
-5.3819999999999997

>  <r_qp_QPpolrz>  (15) 
38.679000000000002

>  <r_qp_SASA>  (15) 
580.57299999999998

>  <r_qp_SAamideO>  (15) 
0

>  <r_qp_SAfluorine>  (15) 
0

>  <r_qp_WPSA>  (15) 
67.918000000000006

>  <r_qp_accptHB>  (15) 
4

>  <r_qp_dip^2/V>  (15) 
0.027720600000000001

>  <r_qp_dipole>  (15) 
5.3949999999999996

>  <r_qp_donorHB>  (15) 
1

>  <r_qp_glob>  (15) 
0.86058659999999998

>  <r_qp_mol_MW>  (15) 
348.83100000000002

>  <r_qp_volume>  (15) 
1050.098

>  <r_sd_BIOSOLVEIT.INFINISEE\_FTREES\_SIMILARITY>  (15) 
0.90400000000000003

>  <r_sd_BIOSOLVEIT.LOGP>  (15) 
5.1067

>  <r_sd_BIOSOLVEIT.MOLECULAR\_WEIGHT>  (15) 
348.83100000000002

>  <r_sd_BIOSOLVEIT.TPSA>  (15) 
32.340000000000003

>  <i_epik_Tot_Q>  (15) 
0

>  <i_epik_Tot_abs_Q>  (15) 
0

>  <i_f3d_flags>  (15) 
0

>  <i_i_glide_confnum>  (15) 
2

>  <i_i_glide_lignum>  (15) 
643

>  <i_i_glide_posenum>  (15) 
19

>  <i_i_glide_rotatable_bonds>  (15) 
3

>  <i_lp_mmshare_version>  (15) 
65135

>  <i_m_ct_format>  (15) 
2

>  <i_m_source_file_index>  (15) 
1825

>  <i_qp_#NandO>  (15) 
3

>  <i_qp_#acid>  (15) 
0

>  <i_qp_#amide>  (15) 
0

>  <i_qp_#amidine>  (15) 
0

>  <i_qp_#amine>  (15) 
0

>  <i_qp_#in34>  (15) 
0

>  <i_qp_#in56>  (15) 
22

>  <i_qp_#metab>  (15) 
4

>  <i_qp_#nonHatm>  (15) 
25

>  <i_qp_#noncon>  (15) 
1

>  <i_qp_#ringatoms>  (15) 
22

>  <i_qp_#rotor>  (15) 
2

>  <i_qp_#rtvFG>  (15) 
0

>  <i_qp_#stars>  (15) 
0

>  <i_qp_CNS>  (15) 
1

>  <i_qp_HumanOralAbsorption>  (15) 
3

>  <i_qp_RuleOfFive>  (15) 
0

>  <i_qp_RuleOfThree>  (15) 
0

>  <i_sd_BIOSOLVEIT.INFINISEE\_REAGENT1\_NAME>  (15) 
89518

>  <i_sd_BIOSOLVEIT.INFINISEE\_REAGENT2\_NAME>  (15) 
10970556

>  <i_sd_BIOSOLVEIT.INFINISEE\_RESULT\_RANK>  (15) 
79470

>  <i_sd_version>  (15) 
0

>  <b_lp_Chiralities_Consistent>  (15) 
1

>  <b_sd_chiral_flag>  (15) 
0

>  <canonical_id>  (15) 
ATP-HTVS-40E764CABCB1

>  <compound_code>  (15) 
58370

>  <title>  (15) 
m_66bab____89518____10970556

>  <variant>  (15) 
58370-1

>  <source_file>  (15) 
运行/运行/ATP-VSW/ATP-VSW-DOCK_HTVS_1-002_lib.maegz

>  <canonical_smiles>  (15) 
O=C1c2ccccc2N[C@@H](c2ccc(Cl)cc2)N1Cc1ccccc1

>  <scaffold>  (15) 
O=C1c2ccccc2NC(c2ccccc2)N1Cc1ccccc1

>  <molecular_formula>  (15) 
C21H17ClN2O

>  <acquisition_id_v2>  (15) 
ATP-ACQ2-0015

>  <selection_arm_v2>  (15) 
scaffold_score_exploration

>  <priority_v2>  (15) 
P0

$$$$
ATP-ACQ2-0016
     RDKit          3D

 57 60  0  0  0  0  0  0  0  0999 V2000
  199.0484  178.6743  152.6399 S   0  0  0  0  0  0  0  0  0  0  0  0
  199.8587  178.5031  154.1909 C   0  0  0  0  0  0  0  0  0  0  0  0
  199.1884  179.2617  155.2048 C   0  0  0  0  0  0  0  0  0  0  0  0
  199.7684  179.2360  156.4993 C   0  0  0  0  0  0  0  0  0  0  0  0
  200.9261  178.4900  156.7860 C   0  0  0  0  0  0  0  0  0  0  0  0
  201.5467  177.7430  155.7718 C   0  0  0  0  0  0  0  0  0  0  0  0
  201.0133  177.7488  154.4718 C   0  0  0  0  0  0  0  0  0  0  0  0
  198.0059  179.9286  154.6885 C   0  0  0  0  0  0  0  0  0  0  0  0
  197.2158  180.7200  155.5701 C   0  0  0  0  0  0  0  0  0  0  0  0
  196.5870  181.4131  156.3505 C   0  0  0  0  0  0  0  0  0  0  0  0
  195.8794  182.2192  157.3553 C   0  0  1  0  0  0  0  0  0  0  0  0
  194.7000  181.4391  157.7190 N   0  0  0  0  0  0  0  0  0  0  0  0
  196.7518  182.5736  158.5752 C   0  0  0  0  0  0  0  0  0  0  0  0
  196.4153  183.9264  159.1853 C   0  0  0  0  0  0  0  0  0  0  0  0
  197.3801  184.9561  159.1857 C   0  0  0  0  0  0  0  0  0  0  0  0
  197.0706  186.2205  159.7252 C   0  0  0  0  0  0  0  0  0  0  0  0
  197.9967  187.2073  159.7120 F   0  0  0  0  0  0  0  0  0  0  0  0
  195.7972  186.4625  160.2706 C   0  0  0  0  0  0  0  0  0  0  0  0
  194.8320  185.4361  160.2739 C   0  0  0  0  0  0  0  0  0  0  0  0
  195.1410  184.1722  159.7384 C   0  0  0  0  0  0  0  0  0  0  0  0
  197.8125  179.6812  153.3444 C   0  0  0  0  0  0  0  0  0  0  0  0
  196.6959  180.1862  152.4743 C   0  0  0  0  0  0  0  0  0  0  0  0
  197.0581  181.3908  151.7010 N   0  0  0  0  0  0  0  0  0  0  0  0
  197.1463  181.3692  150.3456 C   0  0  0  0  0  0  0  0  0  0  0  0
  196.9462  180.3560  149.6632 O   0  0  0  0  0  0  0  0  0  0  0  0
  197.5251  182.6434  149.6436 C   0  0  0  0  0  0  0  0  0  0  0  0
  196.7339  183.8208  149.7380 C   0  0  0  0  0  0  0  0  0  0  0  0
  195.5592  183.8397  150.4391 O   0  0  0  0  0  0  0  0  0  0  0  0
  197.1477  185.0148  149.1185 C   0  0  0  0  0  0  0  0  0  0  0  0
  198.3361  185.0431  148.3746 C   0  0  0  0  0  0  0  0  0  0  0  0
  199.1116  183.8792  148.2440 C   0  0  0  0  0  0  0  0  0  0  0  0
  198.7101  182.6884  148.8793 C   0  0  0  0  0  0  0  0  0  0  0  0
  197.4521  182.5740  152.4966 C   0  0  0  0  0  0  0  0  0  0  0  0
  194.1476  181.2820  156.8941 H   0  0  0  0  0  0  0  0  0  0  0  0
  194.1494  181.9231  158.3923 H   0  0  0  0  0  0  0  0  0  0  0  0
  199.2984  179.7861  157.3012 H   0  0  0  0  0  0  0  0  0  0  0  0
  201.3373  178.4847  157.7866 H   0  0  0  0  0  0  0  0  0  0  0  0
  202.4323  177.1652  155.9954 H   0  0  0  0  0  0  0  0  0  0  0  0
  201.4955  177.1828  153.6890 H   0  0  0  0  0  0  0  0  0  0  0  0
  195.5431  183.1311  156.8555 H   0  0  0  0  0  0  0  0  0  0  0  0
  196.6381  181.8000  159.3316 H   0  0  0  0  0  0  0  0  0  0  0  0
  197.8067  182.5641  158.3155 H   0  0  0  0  0  0  0  0  0  0  0  0
  198.3633  184.7896  158.7665 H   0  0  0  0  0  0  0  0  0  0  0  0
  195.5637  187.4316  160.6845 H   0  0  0  0  0  0  0  0  0  0  0  0
  193.8508  185.6222  160.6870 H   0  0  0  0  0  0  0  0  0  0  0  0
  194.3892  183.3991  159.7492 H   0  0  0  0  0  0  0  0  0  0  0  0
  196.3367  179.3676  151.8394 H   0  0  0  0  0  0  0  0  0  0  0  0
  195.8403  180.4384  153.0954 H   0  0  0  0  0  0  0  0  0  0  0  0
  195.5417  183.2478  151.1794 H   0  0  0  0  0  0  0  0  0  0  0  0
  196.5549  185.9138  149.2221 H   0  0  0  0  0  0  0  0  0  0  0  0
  198.6585  185.9551  147.8985 H   0  0  0  0  0  0  0  0  0  0  0  0
  200.0208  183.9017  147.6616 H   0  0  0  0  0  0  0  0  0  0  0  0
  199.3190  181.8057  148.7776 H   0  0  0  0  0  0  0  0  0  0  0  0
  198.5108  182.7973  152.3122 H   0  0  0  0  0  0  0  0  0  0  0  0
  197.3187  182.4044  153.5633 H   0  0  0  0  0  0  0  0  0  0  0  0
  196.8488  183.4572  152.2659 H   0  0  0  0  0  0  0  0  0  0  0  0
  194.9750  180.5061  158.1126 H   0  0  0  0  0  0  0  0  0  0  0  0
  1  2  1  0
  1 21  1  0
  2  3  1  0
  2  7  2  0
  3  4  2  0
  3  8  1  0
  4  5  1  0
  4 36  1  0
  5  6  2  0
  5 37  1  0
  6  7  1  0
  6 38  1  0
  7 39  1  0
  8  9  1  0
  8 21  2  0
  9 10  3  0
 10 11  1  0
 11 12  1  0
 11 13  1  0
 11 40  1  6
 12 34  1  0
 12 35  1  0
 12 57  1  0
 13 14  1  0
 13 41  1  0
 13 42  1  0
 14 15  1  0
 14 20  2  0
 15 16  2  0
 15 43  1  0
 16 17  1  0
 16 18  1  0
 18 19  2  0
 18 44  1  0
 19 20  1  0
 19 45  1  0
 20 46  1  0
 21 22  1  0
 22 23  1  0
 22 47  1  0
 22 48  1  0
 23 24  1  0
 23 33  1  0
 24 25  2  0
 24 26  1  0
 26 27  1  0
 26 32  2  0
 27 28  1  0
 27 29  2  0
 28 49  1  0
 29 30  1  0
 29 50  1  0
 30 31  2  0
 30 51  1  0
 31 32  1  0
 31 52  1  0
 32 53  1  0
 33 54  1  0
 33 55  1  0
 33 56  1  0
M  CHG  1  12   1
M  END
>  <s_epik_cmdline>  (16) 
J2VwaWtfcHl0aG9uJywgJy1waCcsICc3LjAwMDAwMCcsICctcGh0JywgJzIuMDAwMDAwJywgJy1tcycsICcxNicsICctdG4nLCAnOCcsICctbWEnLCAnMjAwJywgJy1pbWFlJywgJzxpbmZpbGUubWFlPicsICctb21hZScsICc8b3V0ZmlsZS5tYWU+Jw==

>  <s_epik_input>  (16) 
W2NIXTFbY0hdW2NIXVtjSF1jKFtPSF0pYzFDKD1PKU4oW0NIM10pW0NIMl1jKHMyKWMoYyhjMjMpW2NIXVtjSF1bY0hdW2NIXTMpQyNDW0NAQEhdKFtOSDJdKVtDSDJdYzRbY0hdYyhGKVtjSF1bY0hdW2NIXTQ=

>  <s_i_glide_gridfile>  (16) 
ATP-Grid

>  <s_lp_Force_Field>  (16) 
OPLS_2005

>  <s_lp_Variant>  (16) 
rxn503c____EMOL478035____EMOL49259969____EMOL313110234-4

>  <s_lp_label>  (16) 
2644_sdstereoexpander_2_neutralizer_1_epik_2_stereoizer_1

>  <s_m_source_file>  (16) 
ATP-VSW-LIGPREP-001-in.maegz

>  <s_sd_BIOSOLVEIT.INFINISEE\_QUERY\_NAME>  (16) 
Ref-Lig

>  <s_sd_BIOSOLVEIT.INFINISEE\_QUERY\_SMILES>  (16) 
S(c1nc2c(cc1C[NH2+]Cc3ccc(cc3)C[NH+](C)C)cccc2)Cc4ccccc4

>  <s_sd_BIOSOLVEIT.INFINISEE\_REACTION\_NAME>  (16) 
rxn503c

>  <s_sd_BIOSOLVEIT.INFINISEE\_REAGENT1\_NAME>  (16) 
EMOL478035

>  <s_sd_BIOSOLVEIT.INFINISEE\_REAGENT1\_SMILES>  (16) 
O=C(O)c1c(O)cccc1

>  <s_sd_BIOSOLVEIT.INFINISEE\_REAGENT2\_NAME>  (16) 
EMOL49259969

>  <s_sd_BIOSOLVEIT.INFINISEE\_REAGENT2\_SMILES>  (16) 
ClC=1c2c(SC1CNC)cccc2

>  <s_sd_BIOSOLVEIT.INFINISEE\_REAGENT3\_NAME>  (16) 
EMOL313110234

>  <s_sd_BIOSOLVEIT.INFINISEE\_REAGENT3\_SMILES>  (16) 
Fc1cc(ccc1)CC(N)C#C

>  <s_sd_BIOSOLVEIT.INFINISEE\_SPACE>  (16) 
eXplore_7tr_2022-12

>  <s_vsw_compound_code>  (16) 
84577

>  <s_vsw_variant>  (16) 
84577-4

>  <r_epik_Charging_Adjusted_Penalty>  (16) 
1.21575498988359

>  <r_epik_Ionization_Penalty>  (16) 
0.63549999999999995

>  <r_epik_Ionization_Penalty_Charging>  (16) 
0.58030000000000004

>  <r_epik_Ionization_Penalty_Neutral>  (16) 
0.055199999999999999

>  <r_epik_State_Penalty>  (16) 
0.63549999999999995

>  <r_i_docking_score>  (16) 
-6.7131225125310401

>  <r_i_glide_ecoul>  (16) 
-15.4359216690063

>  <r_i_glide_eff_state_penalty>  (16) 
0.63549999999999995

>  <r_i_glide_einternal>  (16) 
8.6129016876220703

>  <r_i_glide_emodel>  (16) 
-81.203723621153699

>  <r_i_glide_energy>  (16) 
-52.396424293518102

>  <r_i_glide_erotb>  (16) 
0.46685289725444301

>  <r_i_glide_esite>  (16) 
-0.10000000000000001

>  <r_i_glide_evdw>  (16) 
-36.960502624511697

>  <r_i_glide_gscore>  (16) 
-7.3486225125310396

>  <r_i_glide_hbond>  (16) 
-0.53603289544564703

>  <r_i_glide_ligand_efficiency>  (16) 
-0.20342795492518301

>  <r_i_glide_ligand_efficiency_ln>  (16) 
-1.49296368809878

>  <r_i_glide_ligand_efficiency_sa>  (16) 
-0.65250214834287601

>  <r_i_glide_lipo>  (16) 
-2.0782676802436999

>  <r_i_glide_metal>  (16) 
-0

>  <r_i_glide_rewards>  (16) 
-0.93776145251959797

>  <r_lp_Energy>  (16) 
26.653186999999999

>  <r_lp_tautomer_probability>  (16) 
0.999999999997365

>  <r_qp_ACxDN^.5/SA>  (16) 
0.0084510999999999996

>  <r_qp_CIQPlogS>  (16) 
-7.1539999999999999

>  <r_qp_EA(eV)>  (16) 
0.88100000000000001

>  <r_qp_FISA>  (16) 
112.51900000000001

>  <r_qp_FOSA>  (16) 
128.64400000000001

>  <r_qp_IP(eV)>  (16) 
8.6780000000000008

>  <r_qp_Jm>  (16) 
0.018882791370007399

>  <r_qp_PISA>  (16) 
328.96499999999997

>  <r_qp_PSA>  (16) 
73.174000000000007

>  <r_qp_PercentHumanOralAbsorption>  (16) 
100

>  <r_qp_QPPCaco>  (16) 
211.72800000000001

>  <r_qp_QPPMDCK>  (16) 
210.81899999999999

>  <r_qp_QPlogBB>  (16) 
-0.33700000000000002

>  <r_qp_QPlogHERG>  (16) 
-5.218

>  <r_qp_QPlogKhsa>  (16) 
0.97899999999999998

>  <r_qp_QPlogKp>  (16) 
-3.633

>  <r_qp_QPlogPC16>  (16) 
13.834

>  <r_qp_QPlogPo/w>  (16) 
4.9690000000000003

>  <r_qp_QPlogPoct>  (16) 
20.396999999999998

>  <r_qp_QPlogPw>  (16) 
8.8900000000000006

>  <r_qp_QPlogS>  (16) 
-3.7519999999999998

>  <r_qp_QPpolrz>  (16) 
42.901000000000003

>  <r_qp_SASA>  (16) 
627.52700000000004

>  <r_qp_SAamideO>  (16) 
0

>  <r_qp_SAfluorine>  (16) 
30.637

>  <r_qp_WPSA>  (16) 
57.399000000000001

>  <r_qp_accptHB>  (16) 
3.75

>  <r_qp_dip^2/V>  (16) 
0.051728999999999997

>  <r_qp_dipole>  (16) 
8.1739999999999995

>  <r_qp_donorHB>  (16) 
2

>  <r_qp_glob>  (16) 
0.91403829999999997

>  <r_qp_mol_MW>  (16) 
458.54899999999998

>  <r_qp_volume>  (16) 
1291.6600000000001

>  <r_sd_BIOSOLVEIT.INFINISEE\_FTREES\_SIMILARITY>  (16) 
0.91000000000000003

>  <r_sd_BIOSOLVEIT.LOGP>  (16) 
4.2229000000000001

>  <r_sd_BIOSOLVEIT.MOLECULAR\_WEIGHT>  (16) 
459.56200000000001

>  <r_sd_BIOSOLVEIT.TPSA>  (16) 
68.180000000000007

>  <i_epik_Tot_Q>  (16) 
1

>  <i_epik_Tot_abs_Q>  (16) 
1

>  <i_f3d_flags>  (16) 
0

>  <i_i_glide_confnum>  (16) 
4

>  <i_i_glide_lignum>  (16) 
1133

>  <i_i_glide_posenum>  (16) 
19

>  <i_i_glide_rotatable_bonds>  (16) 
9

>  <i_lp_mmshare_version>  (16) 
65135

>  <i_m_ct_format>  (16) 
2

>  <i_m_source_file_index>  (16) 
2644

>  <i_qp_#NandO>  (16) 
4

>  <i_qp_#acid>  (16) 
0

>  <i_qp_#amide>  (16) 
0

>  <i_qp_#amidine>  (16) 
0

>  <i_qp_#amine>  (16) 
1

>  <i_qp_#in34>  (16) 
0

>  <i_qp_#in56>  (16) 
21

>  <i_qp_#metab>  (16) 
7

>  <i_qp_#nonHatm>  (16) 
33

>  <i_qp_#noncon>  (16) 
0

>  <i_qp_#ringatoms>  (16) 
21

>  <i_qp_#rotor>  (16) 
9

>  <i_qp_#rtvFG>  (16) 
0

>  <i_qp_#stars>  (16) 
0

>  <i_qp_CNS>  (16) 
1

>  <i_qp_HumanOralAbsorption>  (16) 
3

>  <i_qp_RuleOfFive>  (16) 
0

>  <i_qp_RuleOfThree>  (16) 
1

>  <i_sd_BIOSOLVEIT.INFINISEE\_RESULT\_RANK>  (16) 
45595

>  <i_sd_version>  (16) 
0

>  <b_lp_Chiralities_Consistent>  (16) 
1

>  <b_sd_chiral_flag>  (16) 
0

>  <canonical_id>  (16) 
ATP-HTVS-65F4836C7042

>  <compound_code>  (16) 
84577

>  <title>  (16) 
rxn503c____EMOL478035____EMOL49259969____EMOL313110234

>  <variant>  (16) 
84577-4

>  <source_file>  (16) 
运行/运行/ATP-VSW/ATP-VSW-DOCK_HTVS_1-001_lib/ATP-VSW-DOCK_HTVS_1-001_lib

>  <canonical_smiles>  (16) 
CN(Cc1sc2ccccc2c1C#C[C@@H]([NH3+])Cc1cccc(F)c1)C(=O)c1ccccc1O

>  <scaffold>  (16) 
O=C(NCc1sc2ccccc2c1C#CCCc1ccccc1)c1ccccc1

>  <molecular_formula>  (16) 
C27H24FN2O2S+

>  <acquisition_id_v2>  (16) 
ATP-ACQ2-0016

>  <selection_arm_v2>  (16) 
exploitation

>  <priority_v2>  (16) 
P0

$$$$
ATP-ACQ2-0017
     RDKit          3D

 61 64  0  0  0  0  0  0  0  0999 V2000
  203.5499  174.1891  155.5879 O   0  0  0  0  0  0  0  0  0  0  0  0
  202.8333  175.3826  155.3568 C   0  0  0  0  0  0  0  0  0  0  0  0
  201.6157  175.4446  156.2845 C   0  0  0  0  0  0  0  0  0  0  0  0
  200.8233  176.7178  156.1021 C   0  0  0  0  0  0  0  0  0  0  0  0
  200.7654  177.6756  157.1379 C   0  0  0  0  0  0  0  0  0  0  0  0
  200.0408  178.8656  156.9544 C   0  0  0  0  0  0  0  0  0  0  0  0
  199.3493  179.0810  155.7511 C   0  0  0  0  0  0  0  0  0  0  0  0
  199.4189  178.1374  154.7116 C   0  0  0  0  0  0  0  0  0  0  0  0
  200.1437  176.9532  154.8883 C   0  0  0  0  0  0  0  0  0  0  0  0
  198.5729  180.3552  155.5425 C   0  0  0  0  0  0  0  0  0  0  0  0
  197.5636  180.6437  156.5581 N   0  0  0  0  0  0  0  0  0  0  0  0
  196.5572  181.7386  156.2735 C   0  0  0  0  0  0  0  0  0  0  0  0
  197.2323  182.9815  155.6988 C   0  0  0  0  0  0  0  0  0  0  0  0
  197.3884  184.3221  156.2010 C   0  0  0  0  0  0  0  0  0  0  0  0
  198.0040  185.1127  155.3097 N   0  0  0  0  0  0  0  0  0  0  0  0
  198.2665  184.3370  154.2455 N   0  0  0  0  0  0  0  0  0  0  0  0
  197.8440  183.0603  154.4731 C   0  0  0  0  0  0  0  0  0  0  0  0
  198.9790  184.8499  153.0702 C   0  0  0  0  0  0  0  0  0  0  0  0
  198.2639  184.5819  151.7412 C   0  0  0  0  0  0  0  0  0  0  0  0
  197.9179  183.2619  151.3299 C   0  0  0  0  0  0  0  0  0  0  0  0
  197.1716  183.0571  150.1465 C   0  0  0  0  0  0  0  0  0  0  0  0
  196.8472  184.1442  149.3169 C   0  0  0  0  0  0  0  0  0  0  0  0
  197.2482  185.4436  149.6785 C   0  0  0  0  0  0  0  0  0  0  0  0
  197.9439  185.6631  150.8869 C   0  0  0  0  0  0  0  0  0  0  0  0
  196.9590  184.9160  157.4664 C   0  0  0  0  0  0  0  0  0  0  0  0
  196.7341  186.3076  157.5573 C   0  0  0  0  0  0  0  0  0  0  0  0
  196.2498  186.8890  158.7362 C   0  0  0  0  0  0  0  0  0  0  0  0
  195.9532  186.0561  159.8310 C   0  0  0  0  0  0  0  0  0  0  0  0
  196.1760  184.6676  159.7681 C   0  0  0  0  0  0  0  0  0  0  0  0
  196.7146  184.0756  158.5930 C   0  0  0  0  0  0  0  0  0  0  0  0
  195.4539  186.6588  161.1233 C   0  0  0  0  0  0  0  0  0  0  0  0
  196.9951  179.7886  156.7276 H   0  0  0  0  0  0  0  0  0  0  0  0
  203.0100  173.4515  155.3435 H   0  0  0  0  0  0  0  0  0  0  0  0
  203.4894  176.2349  155.5390 H   0  0  0  0  0  0  0  0  0  0  0  0
  202.5301  175.4247  154.3108 H   0  0  0  0  0  0  0  0  0  0  0  0
  200.9496  174.5994  156.1134 H   0  0  0  0  0  0  0  0  0  0  0  0
  201.9491  175.3807  157.3141 H   0  0  0  0  0  0  0  0  0  0  0  0
  201.2802  177.5160  158.0751 H   0  0  0  0  0  0  0  0  0  0  0  0
  200.0067  179.6045  157.7376 H   0  0  0  0  0  0  0  0  0  0  0  0
  198.9123  178.3142  153.7707 H   0  0  0  0  0  0  0  0  0  0  0  0
  200.1742  176.2281  154.0833 H   0  0  0  0  0  0  0  0  0  0  0  0
  199.3416  181.1368  155.5154 H   0  0  0  0  0  0  0  0  0  0  0  0
  198.1080  180.2461  154.5602 H   0  0  0  0  0  0  0  0  0  0  0  0
  195.8518  181.3506  155.5216 H   0  0  0  0  0  0  0  0  0  0  0  0
  195.9948  181.8926  157.1835 H   0  0  0  0  0  0  0  0  0  0  0  0
  198.0206  182.2980  153.7495 H   0  0  0  0  0  0  0  0  0  0  0  0
  199.1426  185.9218  153.1924 H   0  0  0  0  0  0  0  0  0  0  0  0
  199.9679  184.3979  153.0412 H   0  0  0  0  0  0  0  0  0  0  0  0
  198.1997  182.3780  151.8713 H   0  0  0  0  0  0  0  0  0  0  0  0
  196.8773  182.0531  149.8899 H   0  0  0  0  0  0  0  0  0  0  0  0
  196.3219  183.9688  148.3842 H   0  0  0  0  0  0  0  0  0  0  0  0
  197.0159  186.2734  149.0192 H   0  0  0  0  0  0  0  0  0  0  0  0
  198.2298  186.6777  151.1624 H   0  0  0  0  0  0  0  0  0  0  0  0
  196.9214  186.9504  156.6955 H   0  0  0  0  0  0  0  0  0  0  0  0
  196.1179  187.9648  158.7929 H   0  0  0  0  0  0  0  0  0  0  0  0
  195.9548  184.0294  160.6081 H   0  0  0  0  0  0  0  0  0  0  0  0
  196.9132  183.0330  158.5839 H   0  0  0  0  0  0  0  0  0  0  0  0
  194.7910  185.9642  161.6364 H   0  0  0  0  0  0  0  0  0  0  0  0
  194.9326  187.6001  160.9446 H   0  0  0  0  0  0  0  0  0  0  0  0
  196.3279  186.8493  161.7395 H   0  0  0  0  0  0  0  0  0  0  0  0
  198.0179  180.8146  157.4303 H   0  0  0  0  0  0  0  0  0  0  0  0
  1  2  1  0
  1 33  1  0
  2  3  1  0
  2 34  1  0
  2 35  1  0
  3  4  1  0
  3 36  1  0
  3 37  1  0
  4  5  1  0
  4  9  2  0
  5  6  2  0
  5 38  1  0
  6  7  1  0
  6 39  1  0
  7  8  2  0
  7 10  1  0
  8  9  1  0
  8 40  1  0
  9 41  1  0
 10 11  1  0
 10 42  1  0
 10 43  1  0
 11 12  1  0
 11 32  1  0
 11 61  1  0
 12 13  1  0
 12 44  1  0
 12 45  1  0
 13 14  1  0
 13 17  2  0
 14 15  2  0
 14 25  1  0
 15 16  1  0
 16 17  1  0
 16 18  1  0
 17 46  1  0
 18 19  1  0
 18 47  1  0
 18 48  1  0
 19 20  2  0
 19 24  1  0
 20 21  1  0
 20 49  1  0
 21 22  2  0
 21 50  1  0
 22 23  1  0
 22 51  1  0
 23 24  2  0
 23 52  1  0
 24 53  1  0
 25 26  1  0
 25 30  2  0
 26 27  2  0
 26 54  1  0
 27 28  1  0
 27 55  1  0
 28 29  2  0
 28 31  1  0
 29 30  1  0
 29 56  1  0
 30 57  1  0
 31 58  1  0
 31 59  1  0
 31 60  1  0
M  CHG  1  11   1
M  END
>  <s_epik_cmdline>  (17) 
J2VwaWtfcHl0aG9uJywgJy1waCcsICc3LjAwMDAwMCcsICctcGh0JywgJzIuMDAwMDAwJywgJy1tcycsICcxNicsICctdG4nLCAnOCcsICctbWEnLCAnMjAwJywgJy1pbWFlJywgJzxpbmZpbGUubWFlPicsICctb21hZScsICc8b3V0ZmlsZS5tYWU+Jw==

>  <s_epik_input>  (17) 
W09IXVtDSDJdW0NIMl1jMVtjSF1bY0hdYyhbY0hdW2NIXTEpW0NIMl1bTkhdW0NIMl1jMmMoLWMzW2NIXVtjSF1jKFtDSDNdKVtjSF1bY0hdMylubihbY0hdMilbQ0gyXWM0W2NIXVtjSF1bY0hdW2NIXVtjSF00

>  <s_i_glide_gridfile>  (17) 
ATP-Grid

>  <s_lp_Force_Field>  (17) 
OPLS_2005

>  <s_lp_Variant>  (17) 
m_207bba____13440778____121441-1

>  <s_lp_label>  (17) 
739_sdstereoexpander_1_neutralizer_1_epik_1_stereoizer_1

>  <s_m_source_file>  (17) 
ATP-VSW-LIGPREP-003-in.maegz

>  <s_sd_BIOSOLVEIT.INFINISEE\_QUERY\_NAME>  (17) 
Ref-Lig

>  <s_sd_BIOSOLVEIT.INFINISEE\_QUERY\_SMILES>  (17) 
S(c1nc2c(cc1C[NH2+]Cc3ccc(cc3)C[NH+](C)C)cccc2)Cc4ccccc4

>  <s_sd_BIOSOLVEIT.INFINISEE\_REACTION\_NAME>  (17) 
m_207bba

>  <s_sd_BIOSOLVEIT.INFINISEE\_REAGENT1\_SMILES>  (17) 
[R1*]NCc1ccc(cc1)CCO

>  <s_sd_BIOSOLVEIT.INFINISEE\_REAGENT2\_SMILES>  (17) 
[R1*]CC=1C(=NN(C1)Cc2ccccc2)c3ccc(cc3)C

>  <s_sd_BIOSOLVEIT.INFINISEE\_SPACE>  (17) 
REALSpace_44bn_2023-08

>  <s_vsw_compound_code>  (17) 
23619

>  <s_vsw_variant>  (17) 
23619-1

>  <r_epik_Charging_Adjusted_Penalty>  (17) 
0.160437715824854

>  <r_epik_Ionization_Penalty>  (17) 
0.080199999999999994

>  <r_epik_Ionization_Penalty_Charging>  (17) 
0.080199999999999994

>  <r_epik_Ionization_Penalty_Neutral>  (17) 
0

>  <r_epik_State_Penalty>  (17) 
0.080199999999999994

>  <r_i_docking_score>  (17) 
-5.6434771541446098

>  <r_i_glide_ecoul>  (17) 
-8.8682765960693395

>  <r_i_glide_eff_state_penalty>  (17) 
0.080199999999999994

>  <r_i_glide_einternal>  (17) 
5.3821835517883301

>  <r_i_glide_emodel>  (17) 
-66.386005424229893

>  <r_i_glide_energy>  (17) 
-46.570642471313498

>  <r_i_glide_erotb>  (17) 
1.0428028864665499

>  <r_i_glide_esite>  (17) 
-0.10016074972571901

>  <r_i_glide_evdw>  (17) 
-37.702365875244098

>  <r_i_glide_gscore>  (17) 
-5.7236771541446103

>  <r_i_glide_hbond>  (17) 
-0.17657034806461799

>  <r_i_glide_ligand_efficiency>  (17) 
-0.182047650133697

>  <r_i_glide_ligand_efficiency_ln>  (17) 
-1.2727770500636599

>  <r_i_glide_ligand_efficiency_sa>  (17) 
-0.57188096528870203

>  <r_i_glide_lipo>  (17) 
-2.4531159778300302

>  <r_i_glide_metal>  (17) 
-0

>  <r_i_glide_rewards>  (17) 
-0.82127318181817999

>  <r_lp_Energy>  (17) 
14.019138999999999

>  <r_lp_tautomer_probability>  (17) 
1

>  <r_qp_ACxDN^.5/SA>  (17) 
0.0093287999999999999

>  <r_qp_CIQPlogS>  (17) 
-5.9470000000000001

>  <r_qp_EA(eV)>  (17) 
0.33700000000000002

>  <r_qp_FISA>  (17) 
82.162000000000006

>  <r_qp_FOSA>  (17) 
232.12200000000001

>  <r_qp_IP(eV)>  (17) 
8.827

>  <r_qp_Jm>  (17) 
0.012083315600034301

>  <r_qp_PISA>  (17) 
398.21499999999997

>  <r_qp_PSA>  (17) 
53.381

>  <r_qp_PercentHumanOralAbsorption>  (17) 
100

>  <r_qp_QPPCaco>  (17) 
410.82299999999998

>  <r_qp_QPPMDCK>  (17) 
209.23599999999999

>  <r_qp_QPlogBB>  (17) 
-0.38100000000000001

>  <r_qp_QPlogHERG>  (17) 
-6.9500000000000002

>  <r_qp_QPlogKhsa>  (17) 
0.92100000000000004

>  <r_qp_QPlogKp>  (17) 
-2.8290000000000002

>  <r_qp_QPlogPC16>  (17) 
14.538

>  <r_qp_QPlogPo/w>  (17) 
4.9710000000000001

>  <r_qp_QPlogPoct>  (17) 
20.829000000000001

>  <r_qp_QPlogPw>  (17) 
10.275

>  <r_qp_QPlogS>  (17) 
-4.7030000000000003

>  <r_qp_QPpolrz>  (17) 
45.731999999999999

>  <r_qp_SASA>  (17) 
712.5

>  <r_qp_SAamideO>  (17) 
0

>  <r_qp_SAfluorine>  (17) 
0

>  <r_qp_WPSA>  (17) 
0

>  <r_qp_accptHB>  (17) 
4.7000000000000002

>  <r_qp_dip^2/V>  (17) 
0.019314499999999998

>  <r_qp_dipole>  (17) 
5.0990000000000002

>  <r_qp_donorHB>  (17) 
2

>  <r_qp_glob>  (17) 
0.82740760000000002

>  <r_qp_mol_MW>  (17) 
411.54599999999999

>  <r_qp_volume>  (17) 
1345.8879999999999

>  <r_sd_BIOSOLVEIT.INFINISEE\_FTREES\_SIMILARITY>  (17) 
0.92700000000000005

>  <r_sd_BIOSOLVEIT.LOGP>  (17) 
3.7052200000000002

>  <r_sd_BIOSOLVEIT.MOLECULAR\_WEIGHT>  (17) 
412.55399999999997

>  <r_sd_BIOSOLVEIT.TPSA>  (17) 
54.659999999999997

>  <i_epik_Tot_Q>  (17) 
1

>  <i_epik_Tot_abs_Q>  (17) 
1

>  <i_f3d_flags>  (17) 
0

>  <i_i_glide_confnum>  (17) 
5

>  <i_i_glide_lignum>  (17) 
315

>  <i_i_glide_posenum>  (17) 
18

>  <i_i_glide_rotatable_bonds>  (17) 
10

>  <i_lp_mmshare_version>  (17) 
65135

>  <i_m_ct_format>  (17) 
2

>  <i_m_source_file_index>  (17) 
739

>  <i_qp_#NandO>  (17) 
4

>  <i_qp_#acid>  (17) 
0

>  <i_qp_#amide>  (17) 
0

>  <i_qp_#amidine>  (17) 
0

>  <i_qp_#amine>  (17) 
1

>  <i_qp_#in34>  (17) 
0

>  <i_qp_#in56>  (17) 
23

>  <i_qp_#metab>  (17) 
7

>  <i_qp_#nonHatm>  (17) 
31

>  <i_qp_#noncon>  (17) 
0

>  <i_qp_#ringatoms>  (17) 
23

>  <i_qp_#rotor>  (17) 
9

>  <i_qp_#rtvFG>  (17) 
0

>  <i_qp_#stars>  (17) 
0

>  <i_qp_CNS>  (17) 
1

>  <i_qp_HumanOralAbsorption>  (17) 
3

>  <i_qp_RuleOfFive>  (17) 
0

>  <i_qp_RuleOfThree>  (17) 
1

>  <i_sd_BIOSOLVEIT.INFINISEE\_REAGENT1\_NAME>  (17) 
13440778

>  <i_sd_BIOSOLVEIT.INFINISEE\_REAGENT2\_NAME>  (17) 
121441

>  <i_sd_BIOSOLVEIT.INFINISEE\_RESULT\_RANK>  (17) 
7061

>  <i_sd_version>  (17) 
0

>  <b_lp_Chiralities_Consistent>  (17) 
1

>  <b_sd_chiral_flag>  (17) 
0

>  <canonical_id>  (17) 
ATP-HTVS-D53BE49171F7

>  <compound_code>  (17) 
23619

>  <title>  (17) 
m_207bba____13440778____121441

>  <variant>  (17) 
23619-1

>  <source_file>  (17) 
运行/运行/ATP-VSW/ATP-VSW-DOCK_HTVS_1-003_lib/ATP-VSW-DOCK_HTVS_1-003_lib.mae

>  <canonical_smiles>  (17) 
Cc1ccc(-c2nn(Cc3ccccc3)cc2C[NH2+]Cc2ccc(CCO)cc2)cc1

>  <scaffold>  (17) 
c1ccc(C[NH2+]Cc2cn(Cc3ccccc3)nc2-c2ccccc2)cc1

>  <molecular_formula>  (17) 
C27H30N3O+

>  <acquisition_id_v2>  (17) 
ATP-ACQ2-0017

>  <selection_arm_v2>  (17) 
local_structure_bridge

>  <priority_v2>  (17) 
P0

$$$$
ATP-ACQ2-0018
     RDKit          3D

 66 69  0  0  0  0  0  0  0  0999 V2000
  197.6340  183.4910  151.9406 S   0  0  0  0  0  0  0  0  0  0  0  0
  198.3171  184.1093  150.7917 O   0  0  0  0  0  0  0  0  0  0  0  0
  197.9948  183.8904  153.3098 O   0  0  0  0  0  0  0  0  0  0  0  0
  195.9532  183.7873  151.7313 N   0  0  0  0  0  0  0  0  0  0  0  0
  197.7129  181.6994  151.7684 C   0  0  0  0  0  0  0  0  0  0  0  0
  197.3263  180.8047  152.8007 C   0  0  0  0  0  0  0  0  0  0  0  0
  197.4055  179.4161  152.5618 C   0  0  0  0  0  0  0  0  0  0  0  0
  197.8677  178.9081  151.3354 C   0  0  0  0  0  0  0  0  0  0  0  0
  198.2291  179.7958  150.3082 C   0  0  0  0  0  0  0  0  0  0  0  0
  198.1432  181.1857  150.5247 C   0  0  0  0  0  0  0  0  0  0  0  0
  196.8497  181.2759  154.1723 C   0  0  0  0  0  0  0  0  0  0  0  0
  197.8631  181.1427  155.2295 N   0  0  0  0  0  0  0  0  0  0  0  0
  197.6226  181.9079  156.3861 C   0  0  0  0  0  0  0  0  0  0  0  0
  196.3471  182.1380  156.7774 N   0  0  0  0  0  0  0  0  0  0  0  0
  196.1047  182.8102  157.9044 C   0  0  0  0  0  0  0  0  0  0  0  0
  197.0924  183.2732  158.6634 N   0  0  0  0  0  0  0  0  0  0  0  0
  198.3653  183.0974  158.3320 C   0  0  0  0  0  0  0  0  0  0  0  0
  198.7078  182.3591  157.1806 C   0  0  0  0  0  0  0  0  0  0  0  0
  200.0857  182.1775  156.8528 C   0  0  0  0  0  0  0  0  0  0  0  0
  201.0724  182.7237  157.7030 C   0  0  0  0  0  0  0  0  0  0  0  0
  200.7219  183.4891  158.8290 C   0  0  0  0  0  0  0  0  0  0  0  0
  199.3581  183.6661  159.1469 C   0  0  0  0  0  0  0  0  0  0  0  0
  194.7930  183.0468  158.3357 N   0  0  0  0  0  0  0  0  0  0  0  0
  194.3873  184.0874  159.2567 C   0  0  0  0  0  0  0  0  0  0  0  0
  195.2251  185.3789  159.4364 C   0  0  0  0  0  0  0  0  0  0  0  0
  195.1103  186.1258  160.6368 C   0  0  0  0  0  0  0  0  0  0  0  0
  195.9591  187.2328  160.8650 C   0  0  0  0  0  0  0  0  0  0  0  0
  196.9213  187.5958  159.8913 C   0  0  0  0  0  0  0  0  0  0  0  0
  197.7589  188.6989  160.1405 N   0  0  0  0  0  0  0  0  0  0  0  0
  198.4631  189.3912  159.0807 C   0  0  0  0  0  0  0  0  0  0  0  0
  199.5050  190.3234  159.7035 C   0  0  0  0  0  0  0  0  0  0  0  0
  197.4820  190.1666  158.1851 C   0  0  0  0  0  0  0  0  0  0  0  0
  197.0300  186.8422  158.7058 C   0  0  0  0  0  0  0  0  0  0  0  0
  196.1518  185.8019  158.4487 C   0  0  0  0  0  0  0  0  0  0  0  0
  198.2640  179.7845  155.6101 C   0  0  0  0  0  0  0  0  0  0  0  0
  195.8048  184.7852  151.6372 H   0  0  0  0  0  0  0  0  0  0  0  0
  195.3728  183.4743  152.5257 H   0  0  0  0  0  0  0  0  0  0  0  0
  197.1365  178.7166  153.3407 H   0  0  0  0  0  0  0  0  0  0  0  0
  197.9527  177.8394  151.1910 H   0  0  0  0  0  0  0  0  0  0  0  0
  198.5781  179.4088  149.3610 H   0  0  0  0  0  0  0  0  0  0  0  0
  198.4166  181.8572  149.7259 H   0  0  0  0  0  0  0  0  0  0  0  0
  196.4829  182.3004  154.1302 H   0  0  0  0  0  0  0  0  0  0  0  0
  195.9642  180.6943  154.4429 H   0  0  0  0  0  0  0  0  0  0  0  0
  200.3644  181.6235  155.9807 H   0  0  0  0  0  0  0  0  0  0  0  0
  202.1203  182.5221  157.4900 H   0  0  0  0  0  0  0  0  0  0  0  0
  201.4830  183.8988  159.4698 H   0  0  0  0  0  0  0  0  0  0  0  0
  199.0898  184.2886  159.9806 H   0  0  0  0  0  0  0  0  0  0  0  0
  194.1596  182.9449  157.5391 H   0  0  0  0  0  0  0  0  0  0  0  0
  193.3457  184.3858  159.0952 H   0  0  0  0  0  0  0  0  0  0  0  0
  194.4064  183.5183  160.1859 H   0  0  0  0  0  0  0  0  0  0  0  0
  194.4036  185.8367  161.4013 H   0  0  0  0  0  0  0  0  0  0  0  0
  195.8470  187.8117  161.7708 H   0  0  0  0  0  0  0  0  0  0  0  0
  197.7916  189.0935  161.0767 H   0  0  0  0  0  0  0  0  0  0  0  0
  199.0050  188.6657  158.4693 H   0  0  0  0  0  0  0  0  0  0  0  0
  200.0663  190.8436  158.9320 H   0  0  0  0  0  0  0  0  0  0  0  0
  200.2118  189.7590  160.3124 H   0  0  0  0  0  0  0  0  0  0  0  0
  199.0314  191.0648  160.3458 H   0  0  0  0  0  0  0  0  0  0  0  0
  198.0130  190.6902  157.3934 H   0  0  0  0  0  0  0  0  0  0  0  0
  196.9235  190.9045  158.7607 H   0  0  0  0  0  0  0  0  0  0  0  0
  196.7567  189.5021  157.7148 H   0  0  0  0  0  0  0  0  0  0  0  0
  197.8233  187.0290  157.9993 H   0  0  0  0  0  0  0  0  0  0  0  0
  196.2625  185.2216  157.5156 H   0  0  0  0  0  0  0  0  0  0  0  0
  198.9692  179.7675  156.4442 H   0  0  0  0  0  0  0  0  0  0  0  0
  198.7729  179.2898  154.7827 H   0  0  0  0  0  0  0  0  0  0  0  0
  197.3974  179.1837  155.9067 H   0  0  0  0  0  0  0  0  0  0  0  0
  196.8472  183.8160  159.5225 H   0  0  0  0  0  0  0  0  0  0  0  0
  1  2  2  0
  1  3  2  0
  1  4  1  0
  1  5  1  0
  4 36  1  0
  4 37  1  0
  5  6  1  0
  5 10  2  0
  6  7  2  0
  6 11  1  0
  7  8  1  0
  7 38  1  0
  8  9  2  0
  8 39  1  0
  9 10  1  0
  9 40  1  0
 10 41  1  0
 11 12  1  0
 11 42  1  0
 11 43  1  0
 12 13  1  0
 12 35  1  0
 13 14  2  0
 13 18  1  0
 14 15  1  0
 15 16  2  0
 15 23  1  0
 16 17  1  0
 16 66  1  0
 17 18  1  0
 17 22  2  0
 18 19  2  0
 19 20  1  0
 19 44  1  0
 20 21  2  0
 20 45  1  0
 21 22  1  0
 21 46  1  0
 22 47  1  0
 23 24  1  0
 23 48  1  0
 24 25  1  0
 24 49  1  0
 24 50  1  0
 25 26  1  0
 25 34  2  0
 26 27  2  0
 26 51  1  0
 27 28  1  0
 27 52  1  0
 28 29  1  0
 28 33  2  0
 29 30  1  0
 29 53  1  0
 30 31  1  0
 30 32  1  0
 30 54  1  0
 31 55  1  0
 31 56  1  0
 31 57  1  0
 32 58  1  0
 32 59  1  0
 32 60  1  0
 33 34  1  0
 33 61  1  0
 34 62  1  0
 35 63  1  0
 35 64  1  0
 35 65  1  0
M  CHG  1  16   1
M  END
>  <s_epik_cmdline>  (18) 
J2VwaWtfcHl0aG9uJywgJy1waCcsICc3LjAwMDAwMCcsICctcGh0JywgJzIuMDAwMDAwJywgJy1tcycsICcxNicsICctdG4nLCAnOCcsICctbWEnLCAnMjAwJywgJy1pbWFlJywgJzxpbmZpbGUubWFlPicsICctb21hZScsICc8b3V0ZmlsZS5tYWU+Jw==

>  <s_epik_input>  (18) 
W2NIXTFbY0hdW2NIXVtjSF1jKGMxUyg9TykoPU8pW05IMl0pW0NIMl1OKFtDSDNdKWMoYyhjMjMpW2NIXVtjSF1bY0hdW2NIXTMpbmMobjIpW05IXVtDSDJdYzRbY0hdW2NIXWMoW2NIXVtjSF00KVtOSF1bQ0hdKFtDSDNdKVtDSDNd

>  <s_i_glide_gridfile>  (18) 
ATP-Grid

>  <s_lp_Force_Field>  (18) 
OPLS_2005

>  <s_lp_Variant>  (18) 
m_282030aaa____21909402____22360182____21979096-1

>  <s_lp_label>  (18) 
958_sdstereoexpander_1_neutralizer_1_epik_1_stereoizer_1

>  <s_m_source_file>  (18) 
ATP-VSW-LIGPREP-002-in.maegz

>  <s_sd_BIOSOLVEIT.INFINISEE\_QUERY\_NAME>  (18) 
Ref-Lig

>  <s_sd_BIOSOLVEIT.INFINISEE\_QUERY\_SMILES>  (18) 
S(c1nc2c(cc1C[NH2+]Cc3ccc(cc3)C[NH+](C)C)cccc2)Cc4ccccc4

>  <s_sd_BIOSOLVEIT.INFINISEE\_REACTION\_NAME>  (18) 
m_282030aaa

>  <s_sd_BIOSOLVEIT.INFINISEE\_REAGENT1\_SMILES>  (18) 
[R1*]N(Cc1c(S(=O)(=O)N)cccc1)C

>  <s_sd_BIOSOLVEIT.INFINISEE\_REAGENT2\_SMILES>  (18) 
[R2*]c1nc([R1*])c2c(n1)cccc2

>  <s_sd_BIOSOLVEIT.INFINISEE\_REAGENT3\_SMILES>  (18) 
[R2*]NCc1ccc(NC(C)C)cc1

>  <s_sd_BIOSOLVEIT.INFINISEE\_SPACE>  (18) 
REALSpace_44bn_2023-08

>  <s_vsw_compound_code>  (18) 
30626

>  <s_vsw_variant>  (18) 
30626-1

>  <r_epik_Charging_Adjusted_Penalty>  (18) 
0.15519838282513701

>  <r_epik_Ionization_Penalty>  (18) 
0.14480000000000001

>  <r_epik_Ionization_Penalty_Charging>  (18) 
0.0074999999999999997

>  <r_epik_Ionization_Penalty_Neutral>  (18) 
0.13730000000000001

>  <r_epik_State_Penalty>  (18) 
0.1477

>  <r_i_docking_score>  (18) 
-4.0897493608392201

>  <r_i_glide_ecoul>  (18) 
-2.7119989395141602

>  <r_i_glide_eff_state_penalty>  (18) 
0.1477

>  <r_i_glide_einternal>  (18) 
3.1175794601440399

>  <r_i_glide_emodel>  (18) 
-52.331234615037701

>  <r_i_glide_energy>  (18) 
-37.6269884109497

>  <r_i_glide_erotb>  (18) 
0.58962600263380904

>  <r_i_glide_esite>  (18) 
-0.26253920380387402

>  <r_i_glide_evdw>  (18) 
-34.914989471435497

>  <r_i_glide_gscore>  (18) 
-4.2374493608392196

>  <r_i_glide_hbond>  (18) 
-0.41449868932360601

>  <r_i_glide_ligand_efficiency>  (18) 
-0.116849981738263

>  <r_i_glide_ligand_efficiency_ln>  (18) 
-0.89779075180087098

>  <r_i_glide_ligand_efficiency_sa>  (18) 
-0.38222403815720601

>  <r_i_glide_lipo>  (18) 
-1.94041547402847

>  <r_i_glide_metal>  (18) 
-0

>  <r_i_glide_rewards>  (18) 
-0.057072681818181301

>  <r_lp_Energy>  (18) 
35.362909000000002

>  <r_qp_ACxDN^.5/SA>  (18) 
0.020335300000000001

>  <r_qp_CIQPlogS>  (18) 
-6.8940000000000001

>  <r_qp_EA(eV)>  (18) 
0.76200000000000001

>  <r_qp_FISA>  (18) 
149.04599999999999

>  <r_qp_FOSA>  (18) 
244.06

>  <r_qp_IP(eV)>  (18) 
8.0459999999999994

>  <r_qp_Jm>  (18) 
0.0034492657475082501

>  <r_qp_PISA>  (18) 
442.87799999999999

>  <r_qp_PSA>  (18) 
108.291

>  <r_qp_PercentHumanOralAbsorption>  (18) 
100

>  <r_qp_QPPCaco>  (18) 
382.37799999999999

>  <r_qp_QPPMDCK>  (18) 
175.01499999999999

>  <r_qp_QPlogBB>  (18) 
-1.7170000000000001

>  <r_qp_QPlogHERG>  (18) 
-7.3710000000000004

>  <r_qp_QPlogKhsa>  (18) 
0.51700000000000002

>  <r_qp_QPlogKp>  (18) 
-1.746

>  <r_qp_QPlogPC16>  (18) 
17.757000000000001

>  <r_qp_QPlogPo/w>  (18) 
4.3570000000000002

>  <r_qp_QPlogPoct>  (18) 
28.492000000000001

>  <r_qp_QPlogPw>  (18) 
17.782

>  <r_qp_QPlogS>  (18) 
-6.407

>  <r_qp_QPpolrz>  (18) 
53.069000000000003

>  <r_qp_SASA>  (18) 
835.98400000000004

>  <r_qp_SAamideO>  (18) 
0

>  <r_qp_SAfluorine>  (18) 
0

>  <r_qp_WPSA>  (18) 
0

>  <r_qp_accptHB>  (18) 
8.5

>  <r_qp_dip^2/V>  (18) 
0.0171562

>  <r_qp_dipole>  (18) 
5.1310000000000002

>  <r_qp_donorHB>  (18) 
4

>  <r_qp_glob>  (18) 
0.7696518

>  <r_qp_mol_MW>  (18) 
490.62200000000001

>  <r_qp_volume>  (18) 
1534.585

>  <r_sd_BIOSOLVEIT.INFINISEE\_FTREES\_SIMILARITY>  (18) 
0.91700000000000004

>  <r_sd_BIOSOLVEIT.LOGP>  (18) 
4.9965999999999999

>  <r_sd_BIOSOLVEIT.MOLECULAR\_WEIGHT>  (18) 
490.62799999999999

>  <r_sd_BIOSOLVEIT.TPSA>  (18) 
113.23999999999999

>  <i_epik_Tot_Q>  (18) 
1

>  <i_epik_Tot_abs_Q>  (18) 
1

>  <i_f3d_flags>  (18) 
0

>  <i_i_glide_confnum>  (18) 
8

>  <i_i_glide_lignum>  (18) 
297

>  <i_i_glide_posenum>  (18) 
10

>  <i_i_glide_rotatable_bonds>  (18) 
9

>  <i_lp_mmshare_version>  (18) 
65135

>  <i_m_ct_format>  (18) 
2

>  <i_m_source_file_index>  (18) 
958

>  <i_qp_#NandO>  (18) 
8

>  <i_qp_#acid>  (18) 
0

>  <i_qp_#amide>  (18) 
0

>  <i_qp_#amidine>  (18) 
0

>  <i_qp_#amine>  (18) 
0

>  <i_qp_#in34>  (18) 
0

>  <i_qp_#in56>  (18) 
22

>  <i_qp_#metab>  (18) 
4

>  <i_qp_#nonHatm>  (18) 
35

>  <i_qp_#noncon>  (18) 
0

>  <i_qp_#ringatoms>  (18) 
22

>  <i_qp_#rotor>  (18) 
10

>  <i_qp_#rtvFG>  (18) 
0

>  <i_qp_#stars>  (18) 
0

>  <i_qp_CNS>  (18) 
-2

>  <i_qp_HumanOralAbsorption>  (18) 
1

>  <i_qp_RuleOfFive>  (18) 
0

>  <i_qp_RuleOfThree>  (18) 
1

>  <i_sd_BIOSOLVEIT.INFINISEE\_REAGENT1\_NAME>  (18) 
21909402

>  <i_sd_BIOSOLVEIT.INFINISEE\_REAGENT2\_NAME>  (18) 
22360182

>  <i_sd_BIOSOLVEIT.INFINISEE\_REAGENT3\_NAME>  (18) 
21979096

>  <i_sd_BIOSOLVEIT.INFINISEE\_RESULT\_RANK>  (18) 
23045

>  <i_sd_version>  (18) 
0

>  <b_lp_Chiralities_Consistent>  (18) 
1

>  <b_sd_chiral_flag>  (18) 
0

>  <canonical_id>  (18) 
ATP-HTVS-E7DA22DA6C24

>  <compound_code>  (18) 
30626

>  <title>  (18) 
m_282030aaa____21909402____22360182____21979096

>  <variant>  (18) 
30626-1

>  <source_file>  (18) 
运行/运行/ATP-VSW/ATP-VSW-DOCK_HTVS_1-002_lib.maegz

>  <canonical_smiles>  (18) 
CC(C)Nc1ccc(CNc2nc(N(C)Cc3ccccc3S(N)(=O)=O)c3ccccc3[nH+]2)cc1

>  <scaffold>  (18) 
c1ccc(CNc2nc(NCc3ccccc3)c3ccccc3[nH+]2)cc1

>  <molecular_formula>  (18) 
C26H31N6O2S+

>  <acquisition_id_v2>  (18) 
ATP-ACQ2-0018

>  <selection_arm_v2>  (18) 
scaffold_score_exploration

>  <priority_v2>  (18) 
P0

$$$$
ATP-ACQ2-0019
     RDKit          3D

 55 57  0  0  0  0  0  0  0  0999 V2000
  197.3542  180.0368  154.2634 S   0  0  0  0  0  0  0  0  0  0  0  0
  197.4825  180.6462  152.6304 C   0  0  0  0  0  0  0  0  0  0  0  0
  197.6683  179.7220  151.5191 C   0  0  0  0  0  0  0  0  0  0  0  0
  197.1736  180.0486  150.2400 C   0  0  0  0  0  0  0  0  0  0  0  0
  197.3510  179.1661  149.1563 C   0  0  0  0  0  0  0  0  0  0  0  0
  198.0363  177.9441  149.3234 C   0  0  0  0  0  0  0  0  0  0  0  0
  198.2301  177.0240  148.1836 N   0  0  0  0  0  0  0  0  0  0  0  0
  198.6641  175.9003  148.4119 O   0  0  0  0  0  0  0  0  0  0  0  0
  197.9492  177.4391  147.0600 O   0  0  0  0  0  0  0  0  0  0  0  0
  198.5362  177.6193  150.6071 C   0  0  0  0  0  0  0  0  0  0  0  0
  198.3607  178.5053  151.6888 C   0  0  0  0  0  0  0  0  0  0  0  0
  197.3672  182.0117  152.5972 C   0  0  0  0  0  0  0  0  0  0  0  0
  197.1857  182.5849  153.8864 C   0  0  0  0  0  0  0  0  0  0  0  0
  197.1449  181.6481  154.8900 C   0  0  0  0  0  0  0  0  0  0  0  0
  197.0131  181.9158  156.3444 C   0  0  0  0  0  0  0  0  0  0  0  0
  195.6586  181.5828  156.8551 N   0  0  0  0  0  0  0  0  0  0  0  0
  195.4295  181.7647  158.3053 C   0  0  1  0  0  0  0  0  0  0  0  0
  195.7301  183.1826  158.8291 C   0  0  0  0  0  0  0  0  0  0  0  0
  197.0732  183.5597  159.0582 C   0  0  0  0  0  0  0  0  0  0  0  0
  197.3765  184.8703  159.5036 C   0  0  0  0  0  0  0  0  0  0  0  0
  196.3412  185.7682  159.7998 C   0  0  0  0  0  0  0  0  0  0  0  0
  195.0021  185.3723  159.6292 C   0  0  0  0  0  0  0  0  0  0  0  0
  194.6945  184.0965  159.1214 C   0  0  0  0  0  0  0  0  0  0  0  0
  196.6294  187.1694  160.2823 C   0  0  0  0  0  0  0  0  0  0  0  0
  196.7185  188.1739  159.1955 N   0  0  0  0  0  0  0  0  0  0  0  0
  197.7388  187.8718  158.1619 C   0  0  0  0  0  0  0  0  0  0  0  0
  196.8843  189.5421  159.7383 C   0  0  0  0  0  0  0  0  0  0  0  0
  194.0050  181.2739  158.6255 C   0  0  0  0  0  0  0  0  0  0  0  0
  194.9433  182.0863  156.3293 H   0  0  0  0  0  0  0  0  0  0  0  0
  196.6494  180.9790  150.0876 H   0  0  0  0  0  0  0  0  0  0  0  0
  196.9617  179.4400  148.1873 H   0  0  0  0  0  0  0  0  0  0  0  0
  199.0694  176.6929  150.7645 H   0  0  0  0  0  0  0  0  0  0  0  0
  198.7658  178.2429  152.6559 H   0  0  0  0  0  0  0  0  0  0  0  0
  197.4307  182.6245  151.7084 H   0  0  0  0  0  0  0  0  0  0  0  0
  197.0889  183.6510  154.0332 H   0  0  0  0  0  0  0  0  0  0  0  0
  197.7600  181.3506  156.9019 H   0  0  0  0  0  0  0  0  0  0  0  0
  197.2151  182.9746  156.4894 H   0  0  0  0  0  0  0  0  0  0  0  0
  196.1188  181.0972  158.8271 H   0  0  0  0  0  0  0  0  0  0  0  0
  197.8879  182.8790  158.8678 H   0  0  0  0  0  0  0  0  0  0  0  0
  198.4092  185.1600  159.6156 H   0  0  0  0  0  0  0  0  0  0  0  0
  194.1954  186.0428  159.8458 H   0  0  0  0  0  0  0  0  0  0  0  0
  193.6510  183.8686  158.9755 H   0  0  0  0  0  0  0  0  0  0  0  0
  195.8408  187.4649  160.9707 H   0  0  0  0  0  0  0  0  0  0  0  0
  197.5466  187.1653  160.8551 H   0  0  0  0  0  0  0  0  0  0  0  0
  198.7367  187.8390  158.5996 H   0  0  0  0  0  0  0  0  0  0  0  0
  197.7386  188.6319  157.3794 H   0  0  0  0  0  0  0  0  0  0  0  0
  197.5541  186.9194  157.6627 H   0  0  0  0  0  0  0  0  0  0  0  0
  197.8241  189.6310  160.2867 H   0  0  0  0  0  0  0  0  0  0  0  0
  196.0706  189.7902  160.4207 H   0  0  0  0  0  0  0  0  0  0  0  0
  196.8819  190.2817  158.9367 H   0  0  0  0  0  0  0  0  0  0  0  0
  193.9031  181.3214  159.7022 H   0  0  0  0  0  0  0  0  0  0  0  0
  193.8203  180.2369  158.3379 H   0  0  0  0  0  0  0  0  0  0  0  0
  193.2330  181.8692  158.1355 H   0  0  0  0  0  0  0  0  0  0  0  0
  195.8261  188.1646  158.7222 H   0  0  0  0  0  0  0  0  0  0  0  0
  195.5299  180.5778  156.7524 H   0  0  0  0  0  0  0  0  0  0  0  0
  1  2  1  0
  1 14  1  0
  2  3  1  0
  2 12  2  0
  3  4  1  0
  3 11  2  0
  4  5  2  0
  4 30  1  0
  5  6  1  0
  5 31  1  0
  6  7  1  0
  6 10  2  0
  7  8  1  0
  7  9  2  0
 10 11  1  0
 10 32  1  0
 11 33  1  0
 12 13  1  0
 12 34  1  0
 13 14  2  0
 13 35  1  0
 14 15  1  0
 15 16  1  0
 15 36  1  0
 15 37  1  0
 16 17  1  0
 16 29  1  0
 16 55  1  0
 17 18  1  0
 17 28  1  0
 17 38  1  1
 18 19  1  0
 18 23  2  0
 19 20  2  0
 19 39  1  0
 20 21  1  0
 20 40  1  0
 21 22  2  0
 21 24  1  0
 22 23  1  0
 22 41  1  0
 23 42  1  0
 24 25  1  0
 24 43  1  0
 24 44  1  0
 25 26  1  0
 25 27  1  0
 25 54  1  0
 26 45  1  0
 26 46  1  0
 26 47  1  0
 27 48  1  0
 27 49  1  0
 27 50  1  0
 28 51  1  0
 28 52  1  0
 28 53  1  0
M  CHG  4   7   1   8  -1  16   1  25   1
M  END
>  <s_epik_cmdline>  (19) 
J2VwaWtfcHl0aG9uJywgJy1waCcsICc3LjAwMDAwMCcsICctcGh0JywgJzIuMDAwMDAwJywgJy1tcycsICcxNicsICctdG4nLCAnOCcsICctbWEnLCAnMjAwJywgJy1pbWFlJywgJzxpbmZpbGUubWFlPicsICctb21hZScsICc8b3V0ZmlsZS5tYWU+Jw==

>  <s_epik_input>  (19) 
W08tXVtOK10oPU8pYyhbY0hdW2NIXTEpW2NIXVtjSF1jMS1jMnNjKFtjSF1bY0hdMilbQ0gyXVtOSF1bQ0BIXShbQ0gzXSljM1tjSF1bY0hdYyhbY0hdW2NIXTMpW0NIMl1OKFtDSDNdKVtDSDNd

>  <s_i_glide_gridfile>  (19) 
ATP-Grid

>  <s_lp_Force_Field>  (19) 
OPLS_2005

>  <s_lp_Variant>  (19) 
m_270004beb____23853920____7548658-1

>  <s_lp_label>  (19) 
1528_sdstereoexpander_1_neutralizer_1_epik_1_stereoizer_1

>  <s_m_source_file>  (19) 
ATP-VSW-LIGPREP-001-in.maegz

>  <s_sd_BIOSOLVEIT.INFINISEE\_QUERY\_NAME>  (19) 
Ref-Lig

>  <s_sd_BIOSOLVEIT.INFINISEE\_QUERY\_SMILES>  (19) 
S(c1nc2c(cc1C[NH2+]Cc3ccc(cc3)C[NH+](C)C)cccc2)Cc4ccccc4

>  <s_sd_BIOSOLVEIT.INFINISEE\_REACTION\_NAME>  (19) 
m_270004beb

>  <s_sd_BIOSOLVEIT.INFINISEE\_REAGENT1\_SMILES>  (19) 
[R1*]NC(c1ccc(cc1)CN(C)C)C

>  <s_sd_BIOSOLVEIT.INFINISEE\_REAGENT2\_SMILES>  (19) 
[R1*]CC=1SC(c2ccc([N+]([O-])=O)cc2)=CC1

>  <s_sd_BIOSOLVEIT.INFINISEE\_SPACE>  (19) 
REALSpace_44bn_2023-08

>  <s_vsw_compound_code>  (19) 
48865

>  <s_vsw_variant>  (19) 
48865-1

>  <r_epik_Charging_Adjusted_Penalty>  (19) 
0.27771382847655102

>  <r_epik_Ionization_Penalty>  (19) 
0.13919999999999999

>  <r_epik_Ionization_Penalty_Charging>  (19) 
0.13919999999999999

>  <r_epik_Ionization_Penalty_Neutral>  (19) 
0

>  <r_epik_State_Penalty>  (19) 
0.13850000000000001

>  <r_i_docking_score>  (19) 
-6.2837009351896898

>  <r_i_glide_ecoul>  (19) 
-13.430567741394

>  <r_i_glide_eff_state_penalty>  (19) 
0.13850000000000001

>  <r_i_glide_einternal>  (19) 
2.5059111118316699

>  <r_i_glide_emodel>  (19) 
-77.708544089105004

>  <r_i_glide_energy>  (19) 
-48.682250022888198

>  <r_i_glide_erotb>  (19) 
0.74322268203703001

>  <r_i_glide_esite>  (19) 
-0.096936023504967203

>  <r_i_glide_evdw>  (19) 
-35.251682281494098

>  <r_i_glide_gscore>  (19) 
-6.4222009351896903

>  <r_i_glide_hbond>  (19) 
-0.351174724379614

>  <r_i_glide_ligand_efficiency>  (19) 
-0.22441789054248901

>  <r_i_glide_ligand_efficiency_ln>  (19) 
-1.45046267331815

>  <r_i_glide_ligand_efficiency_sa>  (19) 
-0.68146489075599503

>  <r_i_glide_lipo>  (19) 
-1.7976335906091401

>  <r_i_glide_metal>  (19) 
-0

>  <r_i_glide_rewards>  (19) 
-1.14251000344919

>  <r_lp_Energy>  (19) 
16.462059

>  <r_qp_ACxDN^.5/SA>  (19) 
0.0071938000000000002

>  <r_qp_CIQPlogS>  (19) 
-4.3810000000000002

>  <r_qp_EA(eV)>  (19) 
1.536

>  <r_qp_FISA>  (19) 
110.886

>  <r_qp_FOSA>  (19) 
261.35399999999998

>  <r_qp_IP(eV)>  (19) 
9.109

>  <r_qp_Jm>  (19) 
0.00071185762238452205

>  <r_qp_PISA>  (19) 
232.119

>  <r_qp_PSA>  (19) 
62.805

>  <r_qp_PercentHumanOralAbsorption>  (19) 
78.841999999999999

>  <r_qp_QPPCaco>  (19) 
54.722000000000001

>  <r_qp_QPPMDCK>  (19) 
34.216999999999999

>  <r_qp_QPlogBB>  (19) 
0.032000000000000001

>  <r_qp_QPlogHERG>  (19) 
-6.0650000000000004

>  <r_qp_QPlogKhsa>  (19) 
0.75800000000000001

>  <r_qp_QPlogKp>  (19) 
-6.1989999999999998

>  <r_qp_QPlogPC16>  (19) 
12.298999999999999

>  <r_qp_QPlogPo/w>  (19) 
3.5499999999999998

>  <r_qp_QPlogPoct>  (19) 
18.132000000000001

>  <r_qp_QPlogPw>  (19) 
7.9180000000000001

>  <r_qp_QPlogS>  (19) 
-2.5459999999999998

>  <r_qp_QPpolrz>  (19) 
40.005000000000003

>  <r_qp_SASA>  (19) 
625.53999999999996

>  <r_qp_SAamideO>  (19) 
0

>  <r_qp_SAfluorine>  (19) 
0

>  <r_qp_WPSA>  (19) 
21.18

>  <r_qp_accptHB>  (19) 
4.5

>  <r_qp_dip^2/V>  (19) 
0.069368299999999994

>  <r_qp_dipole>  (19) 
9.1630000000000003

>  <r_qp_donorHB>  (19) 
1

>  <r_qp_glob>  (19) 
0.87803489999999995

>  <r_qp_mol_MW>  (19) 
395.51799999999997

>  <r_qp_volume>  (19) 
1210.326

>  <r_sd_BIOSOLVEIT.INFINISEE\_FTREES\_SIMILARITY>  (19) 
0.90700000000000003

>  <r_sd_BIOSOLVEIT.LOGP>  (19) 
2.7924000000000002

>  <r_sd_BIOSOLVEIT.MOLECULAR\_WEIGHT>  (19) 
397.53899999999999

>  <r_sd_BIOSOLVEIT.TPSA>  (19) 
66.870000000000005

>  <i_epik_Tot_Q>  (19) 
2

>  <i_epik_Tot_abs_Q>  (19) 
4

>  <i_f3d_flags>  (19) 
0

>  <i_i_glide_confnum>  (19) 
4

>  <i_i_glide_lignum>  (19) 
399

>  <i_i_glide_posenum>  (19) 
9

>  <i_i_glide_rotatable_bonds>  (19) 
8

>  <i_lp_mmshare_version>  (19) 
65135

>  <i_m_ct_format>  (19) 
2

>  <i_m_source_file_index>  (19) 
1528

>  <i_qp_#NandO>  (19) 
5

>  <i_qp_#acid>  (19) 
0

>  <i_qp_#amide>  (19) 
0

>  <i_qp_#amidine>  (19) 
0

>  <i_qp_#amine>  (19) 
2

>  <i_qp_#in34>  (19) 
0

>  <i_qp_#in56>  (19) 
17

>  <i_qp_#metab>  (19) 
7

>  <i_qp_#nonHatm>  (19) 
28

>  <i_qp_#noncon>  (19) 
0

>  <i_qp_#ringatoms>  (19) 
17

>  <i_qp_#rotor>  (19) 
7

>  <i_qp_#rtvFG>  (19) 
0

>  <i_qp_#stars>  (19) 
0

>  <i_qp_CNS>  (19) 
1

>  <i_qp_HumanOralAbsorption>  (19) 
2

>  <i_qp_RuleOfFive>  (19) 
0

>  <i_qp_RuleOfThree>  (19) 
1

>  <i_sd_BIOSOLVEIT.INFINISEE\_REAGENT1\_NAME>  (19) 
23853920

>  <i_sd_BIOSOLVEIT.INFINISEE\_REAGENT2\_NAME>  (19) 
7548658

>  <i_sd_BIOSOLVEIT.INFINISEE\_RESULT\_RANK>  (19) 
61087

>  <i_sd_version>  (19) 
0

>  <b_lp_Chiralities_Consistent>  (19) 
1

>  <b_sd_chiral_flag>  (19) 
0

>  <canonical_id>  (19) 
ATP-HTVS-60D4F7FF4B6B

>  <compound_code>  (19) 
48865

>  <title>  (19) 
m_270004beb____23853920____7548658

>  <variant>  (19) 
48865-1

>  <source_file>  (19) 
运行/运行/ATP-VSW/ATP-VSW-DOCK_HTVS_1-001_lib/ATP-VSW-DOCK_HTVS_1-001_lib

>  <canonical_smiles>  (19) 
C[C@@H]([NH2+]Cc1ccc(-c2ccc([N+](=O)[O-])cc2)s1)c1ccc(C[NH+](C)C)cc1

>  <scaffold>  (19) 
c1ccc(C[NH2+]Cc2ccc(-c3ccccc3)s2)cc1

>  <molecular_formula>  (19) 
C22H27N3O2S+2

>  <acquisition_id_v2>  (19) 
ATP-ACQ2-0019

>  <selection_arm_v2>  (19) 
exploitation

>  <priority_v2>  (19) 
P0

$$$$
ATP-ACQ2-0020
     RDKit          3D

 59 61  0  0  0  0  0  0  0  0999 V2000
  199.3536  186.0185  145.9358 Cl  0  0  0  0  0  0  0  0  0  0  0  0
  198.8764  185.4214  147.4801 C   0  0  0  0  0  0  0  0  0  0  0  0
  199.8119  185.3522  148.5273 C   0  0  0  0  0  0  0  0  0  0  0  0
  199.4222  184.8702  149.7934 C   0  0  0  0  0  0  0  0  0  0  0  0
  198.0986  184.4369  150.0098 C   0  0  0  0  0  0  0  0  0  0  0  0
  197.7192  183.9710  151.3002 N   0  0  0  0  0  0  0  0  0  0  0  0
  197.1645  182.7590  151.4552 C   0  0  0  0  0  0  0  0  0  0  0  0
  195.9518  182.6011  151.4386 O   0  0  0  0  0  0  0  0  0  0  0  0
  198.1133  181.6319  151.6953 C   0  0  0  0  0  0  0  0  0  0  0  0
  198.4147  181.0324  152.9657 C   0  0  0  0  0  0  0  0  0  0  0  0
  197.8540  181.4975  154.1775 N   0  0  0  0  0  0  0  0  0  0  0  0
  198.2014  180.9541  155.4826 C   0  0  0  0  0  0  0  0  0  0  0  0
  197.7109  181.8326  156.6174 C   0  0  0  0  0  0  0  0  0  0  0  0
  196.3478  181.8432  156.9702 C   0  0  0  0  0  0  0  0  0  0  0  0
  195.8921  182.6424  158.0366 C   0  0  0  0  0  0  0  0  0  0  0  0
  196.8008  183.4469  158.7570 C   0  0  0  0  0  0  0  0  0  0  0  0
  198.1670  183.4343  158.4051 C   0  0  0  0  0  0  0  0  0  0  0  0
  198.6167  182.6374  157.3342 C   0  0  0  0  0  0  0  0  0  0  0  0
  196.3170  184.3370  159.8921 C   0  0  0  0  0  0  0  0  0  0  0  0
  195.8136  185.6496  159.4065 N   0  0  0  0  0  0  0  0  0  0  0  0
  196.8213  186.4349  158.6481 C   0  0  0  0  0  0  0  0  0  0  0  0
  195.2202  186.4544  160.4957 C   0  0  0  0  0  0  0  0  0  0  0  0
  199.3037  179.9958  152.8545 C   0  0  0  0  0  0  0  0  0  0  0  0
  199.7949  179.7207  151.2052 S   0  0  0  0  0  0  0  0  0  0  0  0
  198.7906  181.0380  150.6570 C   0  0  0  0  0  0  0  0  0  0  0  0
  197.9482  184.8371  152.4646 C   0  0  0  0  0  0  0  0  0  0  0  0
  196.8457  184.7667  153.5541 C   0  0  0  0  0  0  0  0  0  0  0  0
  197.1515  185.6434  154.6895 N   0  0  0  0  0  0  0  0  0  0  0  0
  197.1565  184.5130  148.9546 C   0  0  0  0  0  0  0  0  0  0  0  0
  197.5464  185.0022  147.6921 C   0  0  0  0  0  0  0  0  0  0  0  0
  196.4209  185.5303  155.3725 H   0  0  0  0  0  0  0  0  0  0  0  0
  197.1738  186.6098  154.3861 H   0  0  0  0  0  0  0  0  0  0  0  0
  200.8328  185.6759  148.3643 H   0  0  0  0  0  0  0  0  0  0  0  0
  200.1451  184.8294  150.5926 H   0  0  0  0  0  0  0  0  0  0  0  0
  197.0674  182.1305  154.1539 H   0  0  0  0  0  0  0  0  0  0  0  0
  197.7800  179.9554  155.6003 H   0  0  0  0  0  0  0  0  0  0  0  0
  199.2830  180.8506  155.5627 H   0  0  0  0  0  0  0  0  0  0  0  0
  195.6417  181.2229  156.4362 H   0  0  0  0  0  0  0  0  0  0  0  0
  194.8381  182.6254  158.2851 H   0  0  0  0  0  0  0  0  0  0  0  0
  198.8777  184.0357  158.9498 H   0  0  0  0  0  0  0  0  0  0  0  0
  199.6663  182.6423  157.0690 H   0  0  0  0  0  0  0  0  0  0  0  0
  195.5286  183.8125  160.4373 H   0  0  0  0  0  0  0  0  0  0  0  0
  197.1270  184.4968  160.6053 H   0  0  0  0  0  0  0  0  0  0  0  0
  197.6788  186.6693  159.2802 H   0  0  0  0  0  0  0  0  0  0  0  0
  196.4020  187.3734  158.2862 H   0  0  0  0  0  0  0  0  0  0  0  0
  197.1873  185.9046  157.7699 H   0  0  0  0  0  0  0  0  0  0  0  0
  195.9557  186.6739  161.2722 H   0  0  0  0  0  0  0  0  0  0  0  0
  194.3772  185.9318  160.9504 H   0  0  0  0  0  0  0  0  0  0  0  0
  194.8528  187.4071  160.1133 H   0  0  0  0  0  0  0  0  0  0  0  0
  199.6863  179.3622  153.6438 H   0  0  0  0  0  0  0  0  0  0  0  0
  198.7562  181.2756  149.6028 H   0  0  0  0  0  0  0  0  0  0  0  0
  198.9257  184.5914  152.8839 H   0  0  0  0  0  0  0  0  0  0  0  0
  197.9991  185.8639  152.0990 H   0  0  0  0  0  0  0  0  0  0  0  0
  195.8799  185.0330  153.1382 H   0  0  0  0  0  0  0  0  0  0  0  0
  196.7199  183.7772  153.9787 H   0  0  0  0  0  0  0  0  0  0  0  0
  196.1263  184.2263  149.1116 H   0  0  0  0  0  0  0  0  0  0  0  0
  196.8226  185.0847  146.8983 H   0  0  0  0  0  0  0  0  0  0  0  0
  198.0319  185.3805  155.1017 H   0  0  0  0  0  0  0  0  0  0  0  0
  195.0562  185.4377  158.7715 H   0  0  0  0  0  0  0  0  0  0  0  0
  1  2  1  0
  2  3  1  0
  2 30  2  0
  3  4  2  0
  3 33  1  0
  4  5  1  0
  4 34  1  0
  5  6  1  0
  5 29  2  0
  6  7  1  0
  6 26  1  0
  7  8  2  0
  7  9  1  0
  9 10  1  0
  9 25  2  0
 10 11  1  0
 10 23  2  0
 11 12  1  0
 11 35  1  0
 12 13  1  0
 12 36  1  0
 12 37  1  0
 13 14  1  0
 13 18  2  0
 14 15  2  0
 14 38  1  0
 15 16  1  0
 15 39  1  0
 16 17  2  0
 16 19  1  0
 17 18  1  0
 17 40  1  0
 18 41  1  0
 19 20  1  0
 19 42  1  0
 19 43  1  0
 20 21  1  0
 20 22  1  0
 20 59  1  0
 21 44  1  0
 21 45  1  0
 21 46  1  0
 22 47  1  0
 22 48  1  0
 22 49  1  0
 23 24  1  0
 23 50  1  0
 24 25  1  0
 25 51  1  0
 26 27  1  0
 26 52  1  0
 26 53  1  0
 27 28  1  0
 27 54  1  0
 27 55  1  0
 28 31  1  0
 28 32  1  0
 28 58  1  0
 29 30  1  0
 29 56  1  0
 30 57  1  0
M  CHG  2  20   1  28   1
M  END
>  <s_epik_cmdline>  (20) 
J2VwaWtfcHl0aG9uJywgJy1waCcsICc3LjAwMDAwMCcsICctcGh0JywgJzIuMDAwMDAwJywgJy1tcycsICcxNicsICctdG4nLCAnOCcsICctbWEnLCAnMjAwJywgJy1pbWFlJywgJzxpbmZpbGUubWFlPicsICctb21hZScsICc8b3V0ZmlsZS5tYWU+Jw==

>  <s_epik_input>  (20) 
Q2xjMVtjSF1bY0hdYyhbY0hdW2NIXTEpTihbQ0gyXVtDSDJdW05IMl0pQyg9TyljMmMoW2NIXXNbY0hdMilbTkhdW0NIMl1jM1tjSF1bY0hdYyhbY0hdW2NIXTMpW0NIMl1OKFtDSDNdKVtDSDNd

>  <s_i_glide_gridfile>  (20) 
ATP-Grid

>  <s_lp_Force_Field>  (20) 
OPLS_2005

>  <s_lp_Variant>  (20) 
rxn512b____EMOL49832880____EMOL10439745____EMOL50155899-1

>  <s_lp_label>  (20) 
2545_sdstereoexpander_1_neutralizer_1_epik_1_stereoizer_1

>  <s_m_source_file>  (20) 
ATP-VSW-LIGPREP-001-in.maegz

>  <s_sd_BIOSOLVEIT.INFINISEE\_QUERY\_NAME>  (20) 
Ref-Lig

>  <s_sd_BIOSOLVEIT.INFINISEE\_QUERY\_SMILES>  (20) 
S(c1nc2c(cc1C[NH2+]Cc3ccc(cc3)C[NH+](C)C)cccc2)Cc4ccccc4

>  <s_sd_BIOSOLVEIT.INFINISEE\_REACTION\_NAME>  (20) 
rxn512b

>  <s_sd_BIOSOLVEIT.INFINISEE\_REAGENT1\_NAME>  (20) 
EMOL49832880

>  <s_sd_BIOSOLVEIT.INFINISEE\_REAGENT1\_SMILES>  (20) 
Clc1ccc(NCCN)cc1

>  <s_sd_BIOSOLVEIT.INFINISEE\_REAGENT2\_NAME>  (20) 
EMOL10439745

>  <s_sd_BIOSOLVEIT.INFINISEE\_REAGENT2\_SMILES>  (20) 
BrC=1C(C(=O)O)=CSC1

>  <s_sd_BIOSOLVEIT.INFINISEE\_REAGENT3\_NAME>  (20) 
EMOL50155899

>  <s_sd_BIOSOLVEIT.INFINISEE\_REAGENT3\_SMILES>  (20) 
N(Cc1ccc(cc1)CN)(C)C

>  <s_sd_BIOSOLVEIT.INFINISEE\_SPACE>  (20) 
eXplore_7tr_2022-12

>  <s_vsw_compound_code>  (20) 
81409

>  <s_vsw_variant>  (20) 
81409-1

>  <r_epik_Charging_Adjusted_Penalty>  (20) 
0.090303258902975497

>  <r_epik_Ionization_Penalty>  (20) 
0.045199999999999997

>  <r_epik_Ionization_Penalty_Charging>  (20) 
0.045199999999999997

>  <r_epik_Ionization_Penalty_Neutral>  (20) 
0

>  <r_epik_State_Penalty>  (20) 
0.045199999999999997

>  <r_i_docking_score>  (20) 
-3.71645058261148

>  <r_i_glide_ecoul>  (20) 
-5.9995012283325204

>  <r_i_glide_eff_state_penalty>  (20) 
0.045199999999999997

>  <r_i_glide_einternal>  (20) 
20.991867065429702

>  <r_i_glide_emodel>  (20) 
-41.859039719801601

>  <r_i_glide_energy>  (20) 
-38.807255744934103

>  <r_i_glide_erotb>  (20) 
0.80809397529168503

>  <r_i_glide_esite>  (20) 
-0.0100354698200596

>  <r_i_glide_evdw>  (20) 
-32.807754516601598

>  <r_i_glide_gscore>  (20) 
-3.7616505826114799

>  <r_i_glide_hbond>  (20) 
0

>  <r_i_glide_ligand_efficiency>  (20) 
-0.123881686087049

>  <r_i_glide_ligand_efficiency_ln>  (20) 
-0.84441806634173899

>  <r_i_glide_ligand_efficiency_sa>  (20) 
-0.38492920146564502

>  <r_i_glide_lipo>  (20) 
-1.5934112511534599

>  <r_i_glide_metal>  (20) 
-0

>  <r_i_glide_rewards>  (20) 
-0.42598492684969302

>  <r_lp_Energy>  (20) 
37.096955000000001

>  <r_lp_tautomer_probability>  (20) 
0.99999274205267796

>  <r_qp_ACxDN^.5/SA>  (20) 
0.0108825

>  <r_qp_CIQPlogS>  (20) 
-3.6299999999999999

>  <r_qp_EA(eV)>  (20) 
0.51900000000000002

>  <r_qp_FISA>  (20) 
93.355999999999995

>  <r_qp_FOSA>  (20) 
271.85199999999998

>  <r_qp_IP(eV)>  (20) 
8.1050000000000004

>  <r_qp_Jm>  (20) 
0.000759686918588386

>  <r_qp_PISA>  (20) 
291.25099999999998

>  <r_qp_PSA>  (20) 
69.366

>  <r_qp_PercentHumanOralAbsorption>  (20) 
73.840999999999994

>  <r_qp_QPPCaco>  (20) 
20.013000000000002

>  <r_qp_QPPMDCK>  (20) 
46.25

>  <r_qp_QPlogBB>  (20) 
0.035999999999999997

>  <r_qp_QPlogHERG>  (20) 
-8.6679999999999993

>  <r_qp_QPlogKhsa>  (20) 
0.78100000000000003

>  <r_qp_QPlogKp>  (20) 
-5.3789999999999996

>  <r_qp_QPlogPC16>  (20) 
15.477

>  <r_qp_QPlogPo/w>  (20) 
4.0309999999999997

>  <r_qp_QPlogPoct>  (20) 
22.045999999999999

>  <r_qp_QPlogPw>  (20) 
10.888

>  <r_qp_QPlogS>  (20) 
-3.387

>  <r_qp_QPpolrz>  (20) 
46.588000000000001

>  <r_qp_SASA>  (20) 
779.71600000000001

>  <r_qp_SAamideO>  (20) 
0

>  <r_qp_SAfluorine>  (20) 
0

>  <r_qp_WPSA>  (20) 
123.258

>  <r_qp_accptHB>  (20) 
6

>  <r_qp_dip^2/V>  (20) 
0.0158885

>  <r_qp_dipole>  (20) 
4.7309999999999999

>  <r_qp_donorHB>  (20) 
2

>  <r_qp_glob>  (20) 
0.77947379999999999

>  <r_qp_mol_MW>  (20) 
443.005

>  <r_qp_volume>  (20) 
1408.8320000000001

>  <r_sd_BIOSOLVEIT.INFINISEE\_FTREES\_SIMILARITY>  (20) 
0.91300000000000003

>  <r_sd_BIOSOLVEIT.LOGP>  (20) 
2.5468000000000002

>  <r_sd_BIOSOLVEIT.MOLECULAR\_WEIGHT>  (20) 
445.02699999999999

>  <r_sd_BIOSOLVEIT.TPSA>  (20) 
64.420000000000002

>  <i_epik_Tot_Q>  (20) 
2

>  <i_epik_Tot_abs_Q>  (20) 
2

>  <i_f3d_flags>  (20) 
0

>  <i_i_glide_confnum>  (20) 
3

>  <i_i_glide_lignum>  (20) 
1018

>  <i_i_glide_posenum>  (20) 
15

>  <i_i_glide_rotatable_bonds>  (20) 
10

>  <i_lp_mmshare_version>  (20) 
65135

>  <i_m_ct_format>  (20) 
2

>  <i_m_source_file_index>  (20) 
2545

>  <i_qp_#NandO>  (20) 
5

>  <i_qp_#acid>  (20) 
0

>  <i_qp_#amide>  (20) 
0

>  <i_qp_#amidine>  (20) 
0

>  <i_qp_#amine>  (20) 
3

>  <i_qp_#in34>  (20) 
0

>  <i_qp_#in56>  (20) 
17

>  <i_qp_#metab>  (20) 
7

>  <i_qp_#nonHatm>  (20) 
30

>  <i_qp_#noncon>  (20) 
0

>  <i_qp_#ringatoms>  (20) 
17

>  <i_qp_#rotor>  (20) 
10

>  <i_qp_#rtvFG>  (20) 
0

>  <i_qp_#stars>  (20) 
0

>  <i_qp_CNS>  (20) 
1

>  <i_qp_HumanOralAbsorption>  (20) 
2

>  <i_qp_RuleOfFive>  (20) 
0

>  <i_qp_RuleOfThree>  (20) 
2

>  <i_sd_BIOSOLVEIT.INFINISEE\_RESULT\_RANK>  (20) 
35131

>  <i_sd_version>  (20) 
0

>  <b_lp_Chiralities_Consistent>  (20) 
1

>  <b_sd_chiral_flag>  (20) 
0

>  <canonical_id>  (20) 
ATP-HTVS-3654BFD7575B

>  <compound_code>  (20) 
81409

>  <title>  (20) 
rxn512b____EMOL49832880____EMOL10439745____EMOL50155899

>  <variant>  (20) 
81409-1

>  <source_file>  (20) 
运行/运行/ATP-VSW/ATP-VSW-DOCK_HTVS_1-001_lib/ATP-VSW-DOCK_HTVS_1-001_lib

>  <canonical_smiles>  (20) 
C[NH+](C)Cc1ccc(CNc2cscc2C(=O)N(CC[NH3+])c2ccc(Cl)cc2)cc1

>  <scaffold>  (20) 
O=C(Nc1ccccc1)c1cscc1NCc1ccccc1

>  <molecular_formula>  (20) 
C23H29ClN4OS+2

>  <acquisition_id_v2>  (20) 
ATP-ACQ2-0020

>  <selection_arm_v2>  (20) 
local_structure_bridge

>  <priority_v2>  (20) 
P0

$$$$
ATP-ACQ2-0021
     RDKit          3D

 50 53  0  0  0  0  0  0  0  0999 V2000
  196.7224  186.9278  157.9018 Cl  0  0  0  0  0  0  0  0  0  0  0  0
  196.4694  185.2326  158.1351 C   0  0  0  0  0  0  0  0  0  0  0  0
  197.1547  184.2650  157.3629 C   0  0  0  0  0  0  0  0  0  0  0  0
  198.3189  184.7434  156.1211 S   0  0  0  0  0  0  0  0  0  0  0  0
  197.3096  185.3981  154.7712 C   0  0  0  0  0  0  0  0  0  0  0  0
  198.2065  185.8342  153.6420 C   0  0  0  0  0  0  0  0  0  0  0  0
  198.9679  187.0545  153.6445 C   0  0  0  0  0  0  0  0  0  0  0  0
  199.6716  187.0960  152.4206 C   0  0  0  0  0  0  0  0  0  0  0  0
  199.3680  185.9709  151.6899 O   0  0  0  0  0  0  0  0  0  0  0  0
  198.4801  185.2169  152.4279 C   0  0  0  0  0  0  0  0  0  0  0  0
  198.0716  183.9157  151.8356 C   0  0  0  0  0  0  0  0  0  0  0  0
  198.6506  183.4651  150.8490 O   0  0  0  0  0  0  0  0  0  0  0  0
  197.0480  183.2846  152.4241 N   0  0  0  0  0  0  0  0  0  0  0  0
  196.6293  181.9162  152.1790 C   0  0  0  0  0  0  0  0  0  0  0  0
  197.3571  180.9216  153.0736 C   0  0  0  0  0  0  0  0  0  0  0  0
  198.5553  180.3328  152.6276 C   0  0  0  0  0  0  0  0  0  0  0  0
  199.2359  179.3981  153.4328 C   0  0  0  0  0  0  0  0  0  0  0  0
  198.7341  179.0543  154.7067 C   0  0  0  0  0  0  0  0  0  0  0  0
  197.5424  179.6557  155.1613 C   0  0  0  0  0  0  0  0  0  0  0  0
  196.8596  180.5911  154.3549 C   0  0  0  0  0  0  0  0  0  0  0  0
  199.4675  178.0326  155.5677 C   0  0  0  0  0  0  0  0  0  0  0  0
  199.5686  178.4144  156.9275 O   0  0  0  0  0  0  0  0  0  0  0  0
  200.5331  188.1481  152.0615 C   0  0  0  0  0  0  0  0  0  0  0  0
  200.6916  189.2250  152.9543 C   0  0  0  0  0  0  0  0  0  0  0  0
  200.0022  189.2212  154.1847 C   0  0  0  0  0  0  0  0  0  0  0  0
  199.1533  188.1457  154.5262 C   0  0  0  0  0  0  0  0  0  0  0  0
  196.9125  182.8928  157.5731 C   0  0  0  0  0  0  0  0  0  0  0  0
  195.9904  182.4820  158.5549 C   0  0  0  0  0  0  0  0  0  0  0  0
  195.3109  183.4418  159.3262 C   0  0  0  0  0  0  0  0  0  0  0  0
  195.5473  184.8135  159.1156 C   0  0  0  0  0  0  0  0  0  0  0  0
  196.5911  184.6333  154.4922 H   0  0  0  0  0  0  0  0  0  0  0  0
  196.7207  186.2449  155.1246 H   0  0  0  0  0  0  0  0  0  0  0  0
  196.5779  183.7581  153.1877 H   0  0  0  0  0  0  0  0  0  0  0  0
  195.5587  181.8563  152.3770 H   0  0  0  0  0  0  0  0  0  0  0  0
  196.7597  181.6396  151.1314 H   0  0  0  0  0  0  0  0  0  0  0  0
  198.9565  180.5958  151.6600 H   0  0  0  0  0  0  0  0  0  0  0  0
  200.1479  178.9447  153.0680 H   0  0  0  0  0  0  0  0  0  0  0  0
  197.1465  179.3920  156.1336 H   0  0  0  0  0  0  0  0  0  0  0  0
  195.9513  181.0432  154.7265 H   0  0  0  0  0  0  0  0  0  0  0  0
  198.9440  177.0783  155.5121 H   0  0  0  0  0  0  0  0  0  0  0  0
  200.4706  177.8651  155.1733 H   0  0  0  0  0  0  0  0  0  0  0  0
  198.7113  178.2295  157.3499 H   0  0  0  0  0  0  0  0  0  0  0  0
  201.0546  188.1318  151.1157 H   0  0  0  0  0  0  0  0  0  0  0  0
  201.3426  190.0497  152.7021 H   0  0  0  0  0  0  0  0  0  0  0  0
  200.1229  190.0477  154.8703 H   0  0  0  0  0  0  0  0  0  0  0  0
  198.6272  188.1537  155.4691 H   0  0  0  0  0  0  0  0  0  0  0  0
  197.4286  182.1492  156.9833 H   0  0  0  0  0  0  0  0  0  0  0  0
  195.8100  181.4279  158.7109 H   0  0  0  0  0  0  0  0  0  0  0  0
  194.6024  183.1269  160.0753 H   0  0  0  0  0  0  0  0  0  0  0  0
  195.0187  185.5482  159.7036 H   0  0  0  0  0  0  0  0  0  0  0  0
  1  2  1  0
  2  3  1  0
  2 30  2  0
  3  4  1  0
  3 27  2  0
  4  5  1  0
  5  6  1  0
  5 31  1  0
  5 32  1  0
  6  7  1  0
  6 10  2  0
  7  8  1  0
  7 26  2  0
  8  9  1  0
  8 23  2  0
  9 10  1  0
 10 11  1  0
 11 12  2  0
 11 13  1  0
 13 14  1  0
 13 33  1  0
 14 15  1  0
 14 34  1  0
 14 35  1  0
 15 16  1  0
 15 20  2  0
 16 17  2  0
 16 36  1  0
 17 18  1  0
 17 37  1  0
 18 19  2  0
 18 21  1  0
 19 20  1  0
 19 38  1  0
 20 39  1  0
 21 22  1  0
 21 40  1  0
 21 41  1  0
 22 42  1  0
 23 24  1  0
 23 43  1  0
 24 25  2  0
 24 44  1  0
 25 26  1  0
 25 45  1  0
 26 46  1  0
 27 28  1  0
 27 47  1  0
 28 29  2  0
 28 48  1  0
 29 30  1  0
 29 49  1  0
 30 50  1  0
M  END
>  <s_epik_cmdline>  (21) 
J2VwaWtfcHl0aG9uJywgJy1waCcsICc3LjAwMDAwMCcsICctcGh0JywgJzIuMDAwMDAwJywgJy1tcycsICcxNicsICctdG4nLCAnOCcsICctbWEnLCAnMjAwJywgJy1pbWFlJywgJzxpbmZpbGUubWFlPicsICctb21hZScsICc8b3V0ZmlsZS5tYWU+Jw==

>  <s_epik_input>  (21) 
W2NIXTFbY0hdW2NIXVtjSF1jKGMxQ2wpU1tDSDJdYzJjKG9jKGMyMylbY0hdW2NIXVtjSF1bY0hdMylDKD1PKVtOSF1bQ0gyXWM0W2NIXVtjSF1jKFtjSF1bY0hdNClbQ0gyXVtPSF0=

>  <s_i_glide_gridfile>  (21) 
ATP-Grid

>  <s_lp_Force_Field>  (21) 
OPLS_2005

>  <s_lp_Variant>  (21) 
a1____58183____286425-1

>  <s_lp_label>  (21) 
578_sdstereoexpander_1_neutralizer_1_epik_1_stereoizer_1

>  <s_m_source_file>  (21) 
ATP-VSW-LIGPREP-002-in.maegz

>  <s_sd_BIOSOLVEIT.INFINISEE\_QUERY\_NAME>  (21) 
Ref-Lig

>  <s_sd_BIOSOLVEIT.INFINISEE\_QUERY\_SMILES>  (21) 
S(c1nc2c(cc1C[NH2+]Cc3ccc(cc3)C[NH+](C)C)cccc2)Cc4ccccc4

>  <s_sd_BIOSOLVEIT.INFINISEE\_REACTION\_NAME>  (21) 
a1

>  <s_sd_BIOSOLVEIT.INFINISEE\_REAGENT1\_SMILES>  (21) 
[R1*]NCc1ccc(cc1)CO

>  <s_sd_BIOSOLVEIT.INFINISEE\_REAGENT2\_SMILES>  (21) 
[R1*]C(=O)C=1Oc2c(cccc2)C1CSc3c(Cl)cccc3

>  <s_sd_BIOSOLVEIT.INFINISEE\_SPACE>  (21) 
FreedomSpace_5bn_2023-06

>  <s_vsw_compound_code>  (21) 
18466

>  <s_vsw_variant>  (21) 
18466-1

>  <r_epik_Charging_Adjusted_Penalty>  (21) 
0

>  <r_epik_Ionization_Penalty>  (21) 
0

>  <r_epik_Ionization_Penalty_Charging>  (21) 
0

>  <r_epik_Ionization_Penalty_Neutral>  (21) 
0

>  <r_epik_State_Penalty>  (21) 
-0

>  <r_i_docking_score>  (21) 
-3.7402764348645499

>  <r_i_glide_ecoul>  (21) 
-8.4042186737060494

>  <r_i_glide_eff_state_penalty>  (21) 
-0

>  <r_i_glide_einternal>  (21) 
3.14345455169678

>  <r_i_glide_emodel>  (21) 
-50.5697643487443

>  <r_i_glide_energy>  (21) 
-41.2770900726318

>  <r_i_glide_erotb>  (21) 
0.83197266575028495

>  <r_i_glide_esite>  (21) 
-0.0347271410030544

>  <r_i_glide_evdw>  (21) 
-32.872871398925803

>  <r_i_glide_gscore>  (21) 
-3.7402764348645499

>  <r_i_glide_hbond>  (21) 
-0.16

>  <r_i_glide_ligand_efficiency>  (21) 
-0.124675881162152

>  <r_i_glide_ligand_efficiency_ln>  (21) 
-0.849831559577089

>  <r_i_glide_ligand_efficiency_sa>  (21) 
-0.38739695021627402

>  <r_i_glide_lipo>  (21) 
-1.04333362909936

>  <r_i_glide_metal>  (21) 
-0

>  <r_i_glide_rewards>  (21) 
-0.42991195951022299

>  <r_lp_Energy>  (21) 
12.996383

>  <r_lp_tautomer_probability>  (21) 
1

>  <r_qp_ACxDN^.5/SA>  (21) 
0.011710999999999999

>  <r_qp_CIQPlogS>  (21) 
-7.2199999999999998

>  <r_qp_EA(eV)>  (21) 
0.78300000000000003

>  <r_qp_FISA>  (21) 
65.349999999999994

>  <r_qp_FOSA>  (21) 
127.041

>  <r_qp_IP(eV)>  (21) 
8.7200000000000006

>  <r_qp_Jm>  (21) 
1.3254487909688699

>  <r_qp_PISA>  (21) 
354.55099999999999

>  <r_qp_PSA>  (21) 
65.507999999999996

>  <r_qp_PercentHumanOralAbsorption>  (21) 
100

>  <r_qp_QPPCaco>  (21) 
2377.8499999999999

>  <r_qp_QPPMDCK>  (21) 
3505.1419999999998

>  <r_qp_QPlogBB>  (21) 
-0.28499999999999998

>  <r_qp_QPlogHERG>  (21) 
-5.1909999999999998

>  <r_qp_QPlogKhsa>  (21) 
0.56200000000000006

>  <r_qp_QPlogKp>  (21) 
-0.70699999999999996

>  <r_qp_QPlogPC16>  (21) 
13.558

>  <r_qp_QPlogPo/w>  (21) 
4.9009999999999998

>  <r_qp_QPlogPoct>  (21) 
20.161999999999999

>  <r_qp_QPlogPw>  (21) 
10.401

>  <r_qp_QPlogS>  (21) 
-4.8120000000000003

>  <r_qp_QPpolrz>  (21) 
40.841000000000001

>  <r_qp_SASA>  (21) 
627.947

>  <r_qp_SAamideO>  (21) 
0

>  <r_qp_SAfluorine>  (21) 
0

>  <r_qp_WPSA>  (21) 
81.004999999999995

>  <r_qp_accptHB>  (21) 
5.2000000000000002

>  <r_qp_dip^2/V>  (21) 
0.044895200000000003

>  <r_qp_dipole>  (21) 
7.3949999999999996

>  <r_qp_donorHB>  (21) 
2

>  <r_qp_glob>  (21) 
0.8783744

>  <r_qp_mol_MW>  (21) 
437.94

>  <r_qp_volume>  (21) 
1218.0239999999999

>  <r_sd_BIOSOLVEIT.INFINISEE\_FTREES\_SIMILARITY>  (21) 
0.90200000000000002

>  <r_sd_BIOSOLVEIT.LOGP>  (21) 
5.8007999999999997

>  <r_sd_BIOSOLVEIT.MOLECULAR\_WEIGHT>  (21) 
437.94400000000002

>  <r_sd_BIOSOLVEIT.TPSA>  (21) 
62.469999999999999

>  <i_epik_Tot_Q>  (21) 
0

>  <i_epik_Tot_abs_Q>  (21) 
0

>  <i_f3d_flags>  (21) 
0

>  <i_i_glide_confnum>  (21) 
7

>  <i_i_glide_lignum>  (21) 
167

>  <i_i_glide_posenum>  (21) 
3

>  <i_i_glide_rotatable_bonds>  (21) 
9

>  <i_lp_mmshare_version>  (21) 
65135

>  <i_m_ct_format>  (21) 
2

>  <i_m_source_file_index>  (21) 
578

>  <i_qp_#NandO>  (21) 
4

>  <i_qp_#acid>  (21) 
0

>  <i_qp_#amide>  (21) 
0

>  <i_qp_#amidine>  (21) 
0

>  <i_qp_#amine>  (21) 
0

>  <i_qp_#in34>  (21) 
0

>  <i_qp_#in56>  (21) 
21

>  <i_qp_#metab>  (21) 
4

>  <i_qp_#nonHatm>  (21) 
30

>  <i_qp_#noncon>  (21) 
0

>  <i_qp_#ringatoms>  (21) 
21

>  <i_qp_#rotor>  (21) 
8

>  <i_qp_#rtvFG>  (21) 
0

>  <i_qp_#stars>  (21) 
0

>  <i_qp_CNS>  (21) 
0

>  <i_qp_HumanOralAbsorption>  (21) 
3

>  <i_qp_RuleOfFive>  (21) 
0

>  <i_qp_RuleOfThree>  (21) 
0

>  <i_sd_BIOSOLVEIT.INFINISEE\_REAGENT1\_NAME>  (21) 
58183

>  <i_sd_BIOSOLVEIT.INFINISEE\_REAGENT2\_NAME>  (21) 
286425

>  <i_sd_BIOSOLVEIT.INFINISEE\_RESULT\_RANK>  (21) 
91254

>  <i_sd_version>  (21) 
0

>  <b_lp_Chiralities_Consistent>  (21) 
1

>  <b_sd_chiral_flag>  (21) 
0

>  <canonical_id>  (21) 
ATP-HTVS-DCF81E89AD2E

>  <compound_code>  (21) 
18466

>  <title>  (21) 
a1____58183____286425

>  <variant>  (21) 
18466-1

>  <source_file>  (21) 
运行/运行/ATP-VSW/ATP-VSW-DOCK_HTVS_1-002_lib.maegz

>  <canonical_smiles>  (21) 
O=C(NCc1ccc(CO)cc1)c1oc2ccccc2c1CSc1ccccc1Cl

>  <scaffold>  (21) 
O=C(NCc1ccccc1)c1oc2ccccc2c1CSc1ccccc1

>  <molecular_formula>  (21) 
C24H20ClNO3S

>  <acquisition_id_v2>  (21) 
ATP-ACQ2-0021

>  <selection_arm_v2>  (21) 
scaffold_score_exploration

>  <priority_v2>  (21) 
P0

$$$$
ATP-ACQ2-0022
     RDKit          3D

 56 59  0  0  0  0  0  0  0  0999 V2000
  195.5443  184.7616  160.5333 F   0  0  0  0  0  0  0  0  0  0  0  0
  196.6285  184.6543  159.7317 C   0  0  0  0  0  0  0  0  0  0  0  0
  196.7647  183.5284  158.9074 C   0  0  0  0  0  0  0  0  0  0  0  0
  197.8742  183.4025  158.0345 C   0  0  0  0  0  0  0  0  0  0  0  0
  198.8585  184.4111  158.0364 C   0  0  0  0  0  0  0  0  0  0  0  0
  198.7324  185.5277  158.8865 C   0  0  0  0  0  0  0  0  0  0  0  0
  197.6118  185.6556  159.7274 C   0  0  0  0  0  0  0  0  0  0  0  0
  198.0280  182.2030  157.1044 C   0  0  0  0  0  0  0  0  0  0  0  0
  196.8477  182.0278  156.1292 C   0  0  2  0  0  0  0  0  0  0  0  0
  195.6666  181.4370  156.8000 N   0  0  0  0  0  0  0  0  0  0  0  0
  197.1452  181.1465  154.9957 C   0  0  0  0  0  0  0  0  0  0  0  0
  197.3898  180.4610  154.0112 C   0  0  0  0  0  0  0  0  0  0  0  0
  197.7039  179.7280  152.7978 C   0  0  0  0  0  0  0  0  0  0  0  0
  198.7940  178.8223  152.7050 C   0  0  0  0  0  0  0  0  0  0  0  0
  199.0269  178.1307  151.5603 N   0  0  0  0  0  0  0  0  0  0  0  0
  198.2446  178.3040  150.4759 C   0  0  0  0  0  0  0  0  0  0  0  0
  197.1656  179.2239  150.4861 C   0  0  0  0  0  0  0  0  0  0  0  0
  196.8894  179.9306  151.6670 C   0  0  0  0  0  0  0  0  0  0  0  0
  196.3844  179.4333  149.3324 C   0  0  0  0  0  0  0  0  0  0  0  0
  196.6436  178.6927  148.1660 C   0  0  0  0  0  0  0  0  0  0  0  0
  197.6970  177.7600  148.1410 C   0  0  0  0  0  0  0  0  0  0  0  0
  198.4811  177.5659  149.2951 C   0  0  0  0  0  0  0  0  0  0  0  0
  199.5485  178.5461  153.8785 N   0  0  0  0  0  0  0  0  0  0  0  0
  200.7812  178.0417  153.9401 C   0  0  0  0  0  0  0  0  0  0  0  0
  201.5931  178.1767  153.0112 O   0  0  0  0  0  0  0  0  0  0  0  0
  201.1964  177.3753  155.2659 C   0  0  0  0  0  0  0  0  0  0  0  0
  202.0123  176.1139  155.0289 C   0  0  0  0  0  0  0  0  0  0  0  0
  203.3925  176.2013  154.7389 C   0  0  0  0  0  0  0  0  0  0  0  0
  204.1551  175.0335  154.5284 C   0  0  0  0  0  0  0  0  0  0  0  0
  203.5495  173.7623  154.5896 C   0  0  0  0  0  0  0  0  0  0  0  0
  204.2987  172.6346  154.3811 O   0  0  0  0  0  0  0  0  0  0  0  0
  202.1682  173.6706  154.8653 C   0  0  0  0  0  0  0  0  0  0  0  0
  201.4047  174.8362  155.0924 C   0  0  0  0  0  0  0  0  0  0  0  0
  194.9001  181.4396  156.1406 H   0  0  0  0  0  0  0  0  0  0  0  0
  195.3675  182.0321  157.5417 H   0  0  0  0  0  0  0  0  0  0  0  0
  195.9936  182.7843  158.9899 H   0  0  0  0  0  0  0  0  0  0  0  0
  199.7264  184.3355  157.3952 H   0  0  0  0  0  0  0  0  0  0  0  0
  199.4980  186.2869  158.8941 H   0  0  0  0  0  0  0  0  0  0  0  0
  197.5141  186.5055  160.3847 H   0  0  0  0  0  0  0  0  0  0  0  0
  198.9654  182.3040  156.5430 H   0  0  0  0  0  0  0  0  0  0  0  0
  198.1299  181.3025  157.7088 H   0  0  0  0  0  0  0  0  0  0  0  0
  196.5751  182.9942  155.6875 H   0  0  0  0  0  0  0  0  0  0  0  0
  196.0730  180.6346  151.6972 H   0  0  0  0  0  0  0  0  0  0  0  0
  195.5658  180.1391  149.3482 H   0  0  0  0  0  0  0  0  0  0  0  0
  196.0391  178.8282  147.2811 H   0  0  0  0  0  0  0  0  0  0  0  0
  197.8976  177.2089  147.2325 H   0  0  0  0  0  0  0  0  0  0  0  0
  199.2896  176.8521  149.2648 H   0  0  0  0  0  0  0  0  0  0  0  0
  199.0526  178.6427  154.7560 H   0  0  0  0  0  0  0  0  0  0  0  0
  201.7547  178.0800  155.8884 H   0  0  0  0  0  0  0  0  0  0  0  0
  200.3102  177.0991  155.8460 H   0  0  0  0  0  0  0  0  0  0  0  0
  203.8713  177.1678  154.6974 H   0  0  0  0  0  0  0  0  0  0  0  0
  205.2093  175.1090  154.3140 H   0  0  0  0  0  0  0  0  0  0  0  0
  203.8169  171.8037  154.2816 H   0  0  0  0  0  0  0  0  0  0  0  0
  201.7077  172.6976  154.9090 H   0  0  0  0  0  0  0  0  0  0  0  0
  200.3549  174.7435  155.3198 H   0  0  0  0  0  0  0  0  0  0  0  0
  195.8153  180.4780  157.1648 H   0  0  0  0  0  0  0  0  0  0  0  0
  1  2  1  0
  2  3  2  0
  2  7  1  0
  3  4  1  0
  3 36  1  0
  4  5  2  0
  4  8  1  0
  5  6  1  0
  5 37  1  0
  6  7  2  0
  6 38  1  0
  7 39  1  0
  8  9  1  0
  8 40  1  0
  8 41  1  0
  9 10  1  0
  9 11  1  0
  9 42  1  6
 10 34  1  0
 10 35  1  0
 10 56  1  0
 11 12  3  0
 12 13  1  0
 13 14  1  0
 13 18  2  0
 14 15  2  0
 14 23  1  0
 15 16  1  0
 16 17  1  0
 16 22  2  0
 17 18  1  0
 17 19  2  0
 18 43  1  0
 19 20  1  0
 19 44  1  0
 20 21  2  0
 20 45  1  0
 21 22  1  0
 21 46  1  0
 22 47  1  0
 23 24  1  0
 23 48  1  0
 24 25  2  0
 24 26  1  0
 26 27  1  0
 26 49  1  0
 26 50  1  0
 27 28  1  0
 27 33  2  0
 28 29  2  0
 28 51  1  0
 29 30  1  0
 29 52  1  0
 30 31  1  0
 30 32  2  0
 31 53  1  0
 32 33  1  0
 32 54  1  0
 33 55  1  0
M  CHG  1  10   1
M  END
>  <s_epik_cmdline>  (22) 
J2VwaWtfcHl0aG9uJywgJy1waCcsICc3LjAwMDAwMCcsICctcGh0JywgJzIuMDAwMDAwJywgJy1tcycsICcxNicsICctdG4nLCAnOCcsICctbWEnLCAnMjAwJywgJy1pbWFlJywgJzxpbmZpbGUubWFlPicsICctb21hZScsICc8b3V0ZmlsZS5tYWU+Jw==

>  <s_epik_input>  (22) 
RmMxW2NIXWMoW2NIXVtjSF1bY0hdMSlbQ0gyXVtDQEhdKFtOSDJdKUMjQ2MoW2NIXWMoYzIzKVtjSF1bY0hdW2NIXVtjSF0zKWMobjIpW05IXUMoPU8pW0NIMl1jNFtjSF1bY0hdYyhbT0hdKVtjSF1bY0hdNA==

>  <s_i_glide_gridfile>  (22) 
ATP-Grid

>  <s_lp_Force_Field>  (22) 
OPLS_2005

>  <s_lp_Variant>  (22) 
rxn503b____EMOL521529____EMOL44466703____EMOL313110234-4

>  <s_lp_label>  (22) 
2664_sdstereoexpander_2_neutralizer_1_epik_2_stereoizer_1

>  <s_m_source_file>  (22) 
ATP-VSW-LIGPREP-001-in.maegz

>  <s_sd_BIOSOLVEIT.INFINISEE\_QUERY\_NAME>  (22) 
Ref-Lig

>  <s_sd_BIOSOLVEIT.INFINISEE\_QUERY\_SMILES>  (22) 
S(c1nc2c(cc1C[NH2+]Cc3ccc(cc3)C[NH+](C)C)cccc2)Cc4ccccc4

>  <s_sd_BIOSOLVEIT.INFINISEE\_REACTION\_NAME>  (22) 
rxn503b

>  <s_sd_BIOSOLVEIT.INFINISEE\_REAGENT1\_NAME>  (22) 
EMOL521529

>  <s_sd_BIOSOLVEIT.INFINISEE\_REAGENT1\_SMILES>  (22) 
O=C(O)Cc1ccc(O)cc1

>  <s_sd_BIOSOLVEIT.INFINISEE\_REAGENT2\_NAME>  (22) 
EMOL44466703

>  <s_sd_BIOSOLVEIT.INFINISEE\_REAGENT2\_SMILES>  (22) 
Brc1c(nc2c(c1)cccc2)N

>  <s_sd_BIOSOLVEIT.INFINISEE\_REAGENT3\_NAME>  (22) 
EMOL313110234

>  <s_sd_BIOSOLVEIT.INFINISEE\_REAGENT3\_SMILES>  (22) 
Fc1cc(ccc1)CC(N)C#C

>  <s_sd_BIOSOLVEIT.INFINISEE\_SPACE>  (22) 
eXplore_7tr_2022-12

>  <s_vsw_compound_code>  (22) 
85217

>  <s_vsw_variant>  (22) 
85217-4

>  <r_epik_Charging_Adjusted_Penalty>  (22) 
1.2271758803980499

>  <r_epik_Ionization_Penalty>  (22) 
0.61439999999999995

>  <r_epik_Ionization_Penalty_Charging>  (22) 
0.61299999999999999

>  <r_epik_Ionization_Penalty_Neutral>  (22) 
0.0014

>  <r_epik_State_Penalty>  (22) 
0.61419999999999997

>  <r_i_docking_score>  (22) 
-6.4929946623529302

>  <r_i_glide_ecoul>  (22) 
-19.282735824585

>  <r_i_glide_eff_state_penalty>  (22) 
0.61419999999999997

>  <r_i_glide_einternal>  (22) 
9.4100675582885707

>  <r_i_glide_emodel>  (22) 
-79.623200691425794

>  <r_i_glide_energy>  (22) 
-51.664319992065401

>  <r_i_glide_erotb>  (22) 
0.72034826401853302

>  <r_i_glide_esite>  (22) 
-0.100451183419526

>  <r_i_glide_evdw>  (22) 
-32.381584167480497

>  <r_i_glide_gscore>  (22) 
-7.1071946623529296

>  <r_i_glide_hbond>  (22) 
-0.48418838982917001

>  <r_i_glide_ligand_efficiency>  (22) 
-0.19675741401069499

>  <r_i_glide_ligand_efficiency_ln>  (22) 
-1.44400839398018

>  <r_i_glide_ligand_efficiency_sa>  (22) 
-0.63110615938494996

>  <r_i_glide_lipo>  (22) 
-1.9121235292468199

>  <r_i_glide_metal>  (22) 
-0

>  <r_i_glide_rewards>  (22) 
-0.81929024181418098

>  <r_lp_Energy>  (22) 
21.141826999999999

>  <r_lp_tautomer_probability>  (22) 
0.999999999997365

>  <r_qp_ACxDN^.5/SA>  (22) 
0.0143331

>  <r_qp_CIQPlogS>  (22) 
-6.0030000000000001

>  <r_qp_EA(eV)>  (22) 
0.95599999999999996

>  <r_qp_FISA>  (22) 
122.953

>  <r_qp_FOSA>  (22) 
91.137

>  <r_qp_IP(eV)>  (22) 
8.6509999999999998

>  <r_qp_Jm>  (22) 
0.0042910865585608403

>  <r_qp_PISA>  (22) 
472.726

>  <r_qp_PSA>  (22) 
92.001999999999995

>  <r_qp_PercentHumanOralAbsorption>  (22) 
93.067999999999998

>  <r_qp_QPPCaco>  (22) 
168.59200000000001

>  <r_qp_QPPMDCK>  (22) 
142.292

>  <r_qp_QPlogBB>  (22) 
-0.69999999999999996

>  <r_qp_QPlogHERG>  (22) 
-7.4939999999999998

>  <r_qp_QPlogKhsa>  (22) 
0.70099999999999996

>  <r_qp_QPlogKp>  (22) 
-3.319

>  <r_qp_QPlogPC16>  (22) 
15.784000000000001

>  <r_qp_QPlogPo/w>  (22) 
4.4859999999999998

>  <r_qp_QPlogPoct>  (22) 
25.675999999999998

>  <r_qp_QPlogPw>  (22) 
14.593999999999999

>  <r_qp_QPlogS>  (22) 
-4.6920000000000002

>  <r_qp_QPpolrz>  (22) 
47.552999999999997

>  <r_qp_SASA>  (22) 
732.572

>  <r_qp_SAamideO>  (22) 
0

>  <r_qp_SAfluorine>  (22) 
45.756

>  <r_qp_WPSA>  (22) 
45.756

>  <r_qp_accptHB>  (22) 
5.25

>  <r_qp_dip^2/V>  (22) 
0.0553851

>  <r_qp_dipole>  (22) 
8.7219999999999995

>  <r_qp_donorHB>  (22) 
4

>  <r_qp_glob>  (22) 
0.81574040000000003

>  <r_qp_mol_MW>  (22) 
439.488

>  <r_qp_volume>  (22) 
1373.585

>  <r_sd_BIOSOLVEIT.INFINISEE\_FTREES\_SIMILARITY>  (22) 
0.90900000000000003

>  <r_sd_BIOSOLVEIT.LOGP>  (22) 
3.4653999999999998

>  <r_sd_BIOSOLVEIT.MOLECULAR\_WEIGHT>  (22) 
440.49599999999998

>  <r_sd_BIOSOLVEIT.TPSA>  (22) 
89.859999999999999

>  <i_epik_Tot_Q>  (22) 
1

>  <i_epik_Tot_abs_Q>  (22) 
1

>  <i_f3d_flags>  (22) 
0

>  <i_i_glide_confnum>  (22) 
3

>  <i_i_glide_lignum>  (22) 
1173

>  <i_i_glide_posenum>  (22) 
17

>  <i_i_glide_rotatable_bonds>  (22) 
9

>  <i_lp_mmshare_version>  (22) 
65135

>  <i_m_ct_format>  (22) 
2

>  <i_m_source_file_index>  (22) 
2664

>  <i_qp_#NandO>  (22) 
5

>  <i_qp_#acid>  (22) 
0

>  <i_qp_#amide>  (22) 
0

>  <i_qp_#amidine>  (22) 
0

>  <i_qp_#amine>  (22) 
1

>  <i_qp_#in34>  (22) 
0

>  <i_qp_#in56>  (22) 
22

>  <i_qp_#metab>  (22) 
6

>  <i_qp_#nonHatm>  (22) 
33

>  <i_qp_#noncon>  (22) 
0

>  <i_qp_#ringatoms>  (22) 
22

>  <i_qp_#rotor>  (22) 
9

>  <i_qp_#rtvFG>  (22) 
0

>  <i_qp_#stars>  (22) 
1

>  <i_qp_CNS>  (22) 
0

>  <i_qp_HumanOralAbsorption>  (22) 
3

>  <i_qp_RuleOfFive>  (22) 
0

>  <i_qp_RuleOfThree>  (22) 
0

>  <i_sd_BIOSOLVEIT.INFINISEE\_RESULT\_RANK>  (22) 
48132

>  <i_sd_version>  (22) 
0

>  <b_lp_Chiralities_Consistent>  (22) 
1

>  <b_sd_chiral_flag>  (22) 
0

>  <canonical_id>  (22) 
ATP-HTVS-AD7FBCC01633

>  <compound_code>  (22) 
85217

>  <title>  (22) 
rxn503b____EMOL521529____EMOL44466703____EMOL313110234

>  <variant>  (22) 
85217-4

>  <source_file>  (22) 
运行/运行/ATP-VSW/ATP-VSW-DOCK_HTVS_1-001_lib/ATP-VSW-DOCK_HTVS_1-001_lib

>  <canonical_smiles>  (22) 
[NH3+][C@H](C#Cc1cc2ccccc2nc1NC(=O)Cc1ccc(O)cc1)Cc1cccc(F)c1

>  <scaffold>  (22) 
O=C(Cc1ccccc1)Nc1nc2ccccc2cc1C#CCCc1ccccc1

>  <molecular_formula>  (22) 
C27H23FN3O2+

>  <acquisition_id_v2>  (22) 
ATP-ACQ2-0022

>  <selection_arm_v2>  (22) 
exploitation

>  <priority_v2>  (22) 
P0

$$$$
ATP-ACQ2-0023
     RDKit          3D

 62 65  0  0  0  0  0  0  0  0999 V2000
  197.4592  186.3569  156.6704 N   0  0  0  0  0  0  0  0  0  0  0  0
  197.9917  185.5966  155.6702 N   0  0  0  0  0  0  0  0  0  0  0  0
  198.5131  186.1778  154.4877 C   0  0  0  0  0  0  0  0  0  0  0  0
  198.4358  185.4624  153.2596 C   0  0  0  0  0  0  0  0  0  0  0  0
  198.9772  186.0369  152.0853 C   0  0  0  0  0  0  0  0  0  0  0  0
  199.5956  187.2950  152.1420 C   0  0  0  0  0  0  0  0  0  0  0  0
  199.6936  187.9823  153.3710 C   0  0  0  0  0  0  0  0  0  0  0  0
  199.1521  187.4094  154.5400 C   0  0  0  0  0  0  0  0  0  0  0  0
  197.9698  184.2646  155.9729 C   0  0  0  0  0  0  0  0  0  0  0  0
  197.2726  184.1075  157.1603 C   0  0  0  0  0  0  0  0  0  0  0  0
  197.0395  185.4690  157.5677 C   0  0  0  0  0  0  0  0  0  0  0  0
  196.4189  185.9855  158.7944 C   0  0  0  0  0  0  0  0  0  0  0  0
  196.9479  187.1471  159.4036 C   0  0  0  0  0  0  0  0  0  0  0  0
  196.3462  187.6824  160.5598 C   0  0  0  0  0  0  0  0  0  0  0  0
  195.2310  187.0454  161.1328 C   0  0  0  0  0  0  0  0  0  0  0  0
  194.7010  185.8874  160.5314 C   0  0  0  0  0  0  0  0  0  0  0  0
  195.2843  185.3672  159.3671 C   0  0  0  0  0  0  0  0  0  0  0  0
  196.8877  182.7950  157.8713 C   0  0  0  0  0  0  0  0  0  0  0  0
  196.2123  181.8097  156.9870 N   0  0  0  0  0  0  0  0  0  0  0  0
  197.1106  181.2937  155.9081 C   0  0  0  0  0  0  0  0  0  0  0  0
  196.3553  180.3104  155.0040 C   0  0  0  0  0  0  0  0  0  0  0  0
  197.2833  179.8116  153.9244 C   0  0  0  0  0  0  0  0  0  0  0  0
  196.9844  180.0065  152.5547 C   0  0  0  0  0  0  0  0  0  0  0  0
  197.8661  179.5403  151.5700 C   0  0  0  0  0  0  0  0  0  0  0  0
  199.0406  178.8269  151.9191 C   0  0  0  0  0  0  0  0  0  0  0  0
  199.3504  178.6508  153.2852 C   0  0  0  0  0  0  0  0  0  0  0  0
  198.4850  179.1481  154.2747 C   0  0  0  0  0  0  0  0  0  0  0  0
  199.9564  178.2544  150.8443 C   0  0  0  0  0  0  0  0  0  0  0  0
  199.4458  177.0545  150.1662 N   0  0  0  0  0  0  0  0  0  0  0  0
  200.4688  176.5080  149.2818 C   0  0  0  0  0  0  0  0  0  0  0  0
  198.2816  177.3555  149.3385 C   0  0  0  0  0  0  0  0  0  0  0  0
  195.9003  181.0157  157.5423 H   0  0  0  0  0  0  0  0  0  0  0  0
  197.9595  184.4978  153.1826 H   0  0  0  0  0  0  0  0  0  0  0  0
  198.9058  185.5169  151.1344 H   0  0  0  0  0  0  0  0  0  0  0  0
  200.0085  187.7452  151.2529 H   0  0  0  0  0  0  0  0  0  0  0  0
  200.1695  188.9487  153.4262 H   0  0  0  0  0  0  0  0  0  0  0  0
  199.2306  187.9278  155.4876 H   0  0  0  0  0  0  0  0  0  0  0  0
  198.4128  183.5570  155.3013 H   0  0  0  0  0  0  0  0  0  0  0  0
  197.8074  187.6439  158.9721 H   0  0  0  0  0  0  0  0  0  0  0  0
  196.7511  188.5819  161.0039 H   0  0  0  0  0  0  0  0  0  0  0  0
  194.7620  187.4626  162.0082 H   0  0  0  0  0  0  0  0  0  0  0  0
  193.8157  185.4165  160.9337 H   0  0  0  0  0  0  0  0  0  0  0  0
  194.8027  184.5241  158.8932 H   0  0  0  0  0  0  0  0  0  0  0  0
  197.7469  182.3451  158.3735 H   0  0  0  0  0  0  0  0  0  0  0  0
  196.1927  182.9434  158.6931 H   0  0  0  0  0  0  0  0  0  0  0  0
  197.4201  182.0248  155.2370 H   0  0  0  0  0  0  0  0  0  0  0  0
  197.9644  180.7822  156.4136 H   0  0  0  0  0  0  0  0  0  0  0  0
  195.9529  179.4487  155.5307 H   0  0  0  0  0  0  0  0  0  0  0  0
  195.5613  180.9093  154.5460 H   0  0  0  0  0  0  0  0  0  0  0  0
  196.0671  180.4966  152.2469 H   0  0  0  0  0  0  0  0  0  0  0  0
  197.6193  179.7133  150.5357 H   0  0  0  0  0  0  0  0  0  0  0  0
  200.2449  178.1192  153.5847 H   0  0  0  0  0  0  0  0  0  0  0  0
  198.7338  178.9997  155.3150 H   0  0  0  0  0  0  0  0  0  0  0  0
  200.1729  179.0387  150.1139 H   0  0  0  0  0  0  0  0  0  0  0  0
  200.9122  178.0135  151.3132 H   0  0  0  0  0  0  0  0  0  0  0  0
  200.0859  175.6219  148.7730 H   0  0  0  0  0  0  0  0  0  0  0  0
  201.3616  176.2093  149.8344 H   0  0  0  0  0  0  0  0  0  0  0  0
  200.7611  177.2305  148.5160 H   0  0  0  0  0  0  0  0  0  0  0  0
  197.9299  176.4774  148.7851 H   0  0  0  0  0  0  0  0  0  0  0  0
  198.5152  178.1569  148.6337 H   0  0  0  0  0  0  0  0  0  0  0  0
  197.4406  177.6674  149.9578 H   0  0  0  0  0  0  0  0  0  0  0  0
  195.3822  182.2224  156.5689 H   0  0  0  0  0  0  0  0  0  0  0  0
  1  2  1  0
  1 11  2  0
  2  3  1  0
  2  9  1  0
  3  4  2  0
  3  8  1  0
  4  5  1  0
  4 33  1  0
  5  6  2  0
  5 34  1  0
  6  7  1  0
  6 35  1  0
  7  8  2  0
  7 36  1  0
  8 37  1  0
  9 10  2  0
  9 38  1  0
 10 11  1  0
 10 18  1  0
 11 12  1  0
 12 13  2  0
 12 17  1  0
 13 14  1  0
 13 39  1  0
 14 15  2  0
 14 40  1  0
 15 16  1  0
 15 41  1  0
 16 17  2  0
 16 42  1  0
 17 43  1  0
 18 19  1  0
 18 44  1  0
 18 45  1  0
 19 20  1  0
 19 32  1  0
 19 62  1  0
 20 21  1  0
 20 46  1  0
 20 47  1  0
 21 22  1  0
 21 48  1  0
 21 49  1  0
 22 23  1  0
 22 27  2  0
 23 24  2  0
 23 50  1  0
 24 25  1  0
 24 51  1  0
 25 26  2  0
 25 28  1  0
 26 27  1  0
 26 52  1  0
 27 53  1  0
 28 29  1  0
 28 54  1  0
 28 55  1  0
 29 30  1  0
 29 31  1  0
 30 56  1  0
 30 57  1  0
 30 58  1  0
 31 59  1  0
 31 60  1  0
 31 61  1  0
M  CHG  1  19   1
M  END
>  <s_epik_cmdline>  (23) 
J2VwaWtfcHl0aG9uJywgJy1waCcsICc3LjAwMDAwMCcsICctcGh0JywgJzIuMDAwMDAwJywgJy1tcycsICcxNicsICctdG4nLCAnOCcsICctbWEnLCAnMjAwJywgJy1pbWFlJywgJzxpbmZpbGUubWFlPicsICctb21hZScsICc8b3V0ZmlsZS5tYWU+Jw==

>  <s_epik_input>  (23) 
W2NIXTFbY0hdW2NIXVtjSF1bY0hdYzEtbjJuYygtYzNbY0hdW2NIXVtjSF1bY0hdW2NIXTMpYyhbY0hdMilbQ0gyXVtOSF1bQ0gyXVtDSDJdYzRbY0hdW2NIXWMoW2NIXVtjSF00KVtDSDJdTihbQ0gzXSlbQ0gzXQ==

>  <s_i_glide_gridfile>  (23) 
ATP-Grid

>  <s_lp_Force_Field>  (23) 
OPLS_2005

>  <s_lp_Variant>  (23) 
m_270004bbb____15775648____7547684-2

>  <s_lp_label>  (23) 
710_sdstereoexpander_1_neutralizer_1_epik_2_stereoizer_1

>  <s_m_source_file>  (23) 
ATP-VSW-LIGPREP-002-in.maegz

>  <s_sd_BIOSOLVEIT.INFINISEE\_QUERY\_NAME>  (23) 
Ref-Lig

>  <s_sd_BIOSOLVEIT.INFINISEE\_QUERY\_SMILES>  (23) 
S(c1nc2c(cc1C[NH2+]Cc3ccc(cc3)C[NH+](C)C)cccc2)Cc4ccccc4

>  <s_sd_BIOSOLVEIT.INFINISEE\_REACTION\_NAME>  (23) 
m_270004bbb

>  <s_sd_BIOSOLVEIT.INFINISEE\_REAGENT1\_SMILES>  (23) 
[R1*]NCCc1ccc(cc1)CN(C)C

>  <s_sd_BIOSOLVEIT.INFINISEE\_REAGENT2\_SMILES>  (23) 
[R1*]CC=1C(=NN(c2ccccc2)C1)c3ccccc3

>  <s_sd_BIOSOLVEIT.INFINISEE\_SPACE>  (23) 
REALSpace_44bn_2023-08

>  <s_vsw_compound_code>  (23) 
22690

>  <s_vsw_variant>  (23) 
22690-2

>  <r_epik_Charging_Adjusted_Penalty>  (23) 
1.5366075603790701

>  <r_epik_Ionization_Penalty>  (23) 
1.5099

>  <r_epik_Ionization_Penalty_Charging>  (23) 
0.0048999999999999998

>  <r_epik_Ionization_Penalty_Neutral>  (23) 
1.5048999999999999

>  <r_epik_State_Penalty>  (23) 
1.5317000000000001

>  <r_i_docking_score>  (23) 
-3.6153494182696702

>  <r_i_glide_ecoul>  (23) 
-9.0502958297729492

>  <r_i_glide_eff_state_penalty>  (23) 
1.5317000000000001

>  <r_i_glide_einternal>  (23) 
3.8535270690918

>  <r_i_glide_emodel>  (23) 
-58.8188812008407

>  <r_i_glide_energy>  (23) 
-41.004267692565897

>  <r_i_glide_erotb>  (23) 
0.93094244198405296

>  <r_i_glide_esite>  (23) 
-0.10000000000000001

>  <r_i_glide_evdw>  (23) 
-31.953971862793001

>  <r_i_glide_gscore>  (23) 
-5.1470494182696704

>  <r_i_glide_hbond>  (23) 
-0.36832945896486602

>  <r_i_glide_ligand_efficiency>  (23) 
-0.116624174782893

>  <r_i_glide_ligand_efficiency_ln>  (23) 
-0.81537209097324503

>  <r_i_glide_ligand_efficiency_sa>  (23) 
-0.36636092584473101

>  <r_i_glide_lipo>  (23) 
-1.7751762791335499

>  <r_i_glide_metal>  (23) 
-0

>  <r_i_glide_rewards>  (23) 
-0.87924315454971302

>  <r_lp_Energy>  (23) 
19.163235

>  <r_lp_tautomer_probability>  (23) 
1

>  <r_qp_ACxDN^.5/SA>  (23) 
0.0071634999999999997

>  <r_qp_CIQPlogS>  (23) 
-5.0499999999999998

>  <r_qp_EA(eV)>  (23) 
0.46300000000000002

>  <r_qp_FISA>  (23) 
14.016999999999999

>  <r_qp_FOSA>  (23) 
234.11500000000001

>  <r_qp_IP(eV)>  (23) 
8.6319999999999997

>  <r_qp_Jm>  (23) 
0.16606847800572

>  <r_qp_PISA>  (23) 
380.05000000000001

>  <r_qp_PSA>  (23) 
25.518000000000001

>  <r_qp_PercentHumanOralAbsorption>  (23) 
100

>  <r_qp_QPPCaco>  (23) 
453.70499999999998

>  <r_qp_QPPMDCK>  (23) 
257.70499999999998

>  <r_qp_QPlogBB>  (23) 
0.82499999999999996

>  <r_qp_QPlogHERG>  (23) 
-6.2889999999999997

>  <r_qp_QPlogKhsa>  (23) 
0.95999999999999996

>  <r_qp_QPlogKp>  (23) 
-3.8919999999999999

>  <r_qp_QPlogPC16>  (23) 
13.173999999999999

>  <r_qp_QPlogPo/w>  (23) 
4.7690000000000001

>  <r_qp_QPlogPoct>  (23) 
18.498999999999999

>  <r_qp_QPlogPw>  (23) 
8.2639999999999993

>  <r_qp_QPlogS>  (23) 
-2.5009999999999999

>  <r_qp_QPpolrz>  (23) 
44.223999999999997

>  <r_qp_SASA>  (23) 
628.18299999999999

>  <r_qp_SAamideO>  (23) 
0

>  <r_qp_SAfluorine>  (23) 
0

>  <r_qp_WPSA>  (23) 
0

>  <r_qp_accptHB>  (23) 
4.5

>  <r_qp_dip^2/V>  (23) 
0.0035233

>  <r_qp_dipole>  (23) 
2.1240000000000001

>  <r_qp_donorHB>  (23) 
1

>  <r_qp_glob>  (23) 
0.90778650000000005

>  <r_qp_mol_MW>  (23) 
410.56099999999998

>  <r_qp_volume>  (23) 
1280.433

>  <r_sd_BIOSOLVEIT.INFINISEE\_FTREES\_SIMILARITY>  (23) 
0.93000000000000005

>  <r_sd_BIOSOLVEIT.LOGP>  (23) 
2.4899

>  <r_sd_BIOSOLVEIT.MOLECULAR\_WEIGHT>  (23) 
412.57799999999997

>  <r_sd_BIOSOLVEIT.TPSA>  (23) 
38.869999999999997

>  <i_epik_Tot_Q>  (23) 
1

>  <i_epik_Tot_abs_Q>  (23) 
1

>  <i_f3d_flags>  (23) 
0

>  <i_i_glide_confnum>  (23) 
5

>  <i_i_glide_lignum>  (23) 
211

>  <i_i_glide_posenum>  (23) 
17

>  <i_i_glide_rotatable_bonds>  (23) 
9

>  <i_lp_mmshare_version>  (23) 
65135

>  <i_m_ct_format>  (23) 
2

>  <i_m_source_file_index>  (23) 
710

>  <i_qp_#NandO>  (23) 
4

>  <i_qp_#acid>  (23) 
0

>  <i_qp_#amide>  (23) 
0

>  <i_qp_#amidine>  (23) 
0

>  <i_qp_#amine>  (23) 
2

>  <i_qp_#in34>  (23) 
0

>  <i_qp_#in56>  (23) 
23

>  <i_qp_#metab>  (23) 
5

>  <i_qp_#nonHatm>  (23) 
31

>  <i_qp_#noncon>  (23) 
0

>  <i_qp_#ringatoms>  (23) 
23

>  <i_qp_#rotor>  (23) 
7

>  <i_qp_#rtvFG>  (23) 
0

>  <i_qp_#stars>  (23) 
0

>  <i_qp_CNS>  (23) 
2

>  <i_qp_HumanOralAbsorption>  (23) 
3

>  <i_qp_RuleOfFive>  (23) 
0

>  <i_qp_RuleOfThree>  (23) 
0

>  <i_sd_BIOSOLVEIT.INFINISEE\_REAGENT1\_NAME>  (23) 
15775648

>  <i_sd_BIOSOLVEIT.INFINISEE\_REAGENT2\_NAME>  (23) 
7547684

>  <i_sd_BIOSOLVEIT.INFINISEE\_RESULT\_RANK>  (23) 
5008

>  <i_sd_version>  (23) 
0

>  <b_lp_Chiralities_Consistent>  (23) 
1

>  <b_sd_chiral_flag>  (23) 
0

>  <canonical_id>  (23) 
ATP-HTVS-E80A62EE0257

>  <compound_code>  (23) 
22690

>  <title>  (23) 
m_270004bbb____15775648____7547684

>  <variant>  (23) 
22690-2

>  <source_file>  (23) 
运行/运行/ATP-VSW/ATP-VSW-DOCK_HTVS_1-002_lib.maegz

>  <canonical_smiles>  (23) 
CN(C)Cc1ccc(CC[NH2+]Cc2cn(-c3ccccc3)nc2-c2ccccc2)cc1

>  <scaffold>  (23) 
c1ccc(CC[NH2+]Cc2cn(-c3ccccc3)nc2-c2ccccc2)cc1

>  <molecular_formula>  (23) 
C27H31N4+

>  <acquisition_id_v2>  (23) 
ATP-ACQ2-0023

>  <selection_arm_v2>  (23) 
local_structure_bridge

>  <priority_v2>  (23) 
P0

$$$$
ATP-ACQ2-0024
     RDKit          3D

 58 61  0  0  0  0  0  0  0  0999 V2000
  197.5447  177.8554  148.5062 Cl  0  0  0  0  0  0  0  0  0  0  0  0
  197.4258  178.8104  149.9391 C   0  0  0  0  0  0  0  0  0  0  0  0
  198.2663  178.5474  151.0350 C   0  0  0  0  0  0  0  0  0  0  0  0
  198.1548  179.3163  152.2086 C   0  0  0  0  0  0  0  0  0  0  0  0
  197.2089  180.3630  152.3021 C   0  0  0  0  0  0  0  0  0  0  0  0
  196.3526  180.6070  151.2042 C   0  0  0  0  0  0  0  0  0  0  0  0
  196.4649  179.8358  150.0276 C   0  0  0  0  0  0  0  0  0  0  0  0
  197.1159  181.1962  153.5238 C   0  0  0  0  0  0  0  0  0  0  0  0
  197.9127  181.1019  154.5132 N   0  0  0  0  0  0  0  0  0  0  0  0
  197.7423  181.8523  155.6880 N   0  0  0  0  0  0  0  0  0  0  0  0
  198.7612  182.1359  156.5170 C   0  0  0  0  0  0  0  0  0  0  0  0
  198.2404  182.8023  157.5484 N   0  0  0  0  0  0  0  0  0  0  0  0
  196.8973  182.9415  157.3671 C   0  0  0  0  0  0  0  0  0  0  0  0
  196.0450  183.6544  158.3225 C   0  0  0  0  0  0  0  0  0  0  0  0
  194.6744  183.3423  158.4177 C   0  0  0  0  0  0  0  0  0  0  0  0
  193.8399  184.0280  159.3111 C   0  0  0  0  0  0  0  0  0  0  0  0
  194.3671  185.0415  160.1319 C   0  0  0  0  0  0  0  0  0  0  0  0
  195.7356  185.3537  160.0678 C   0  0  0  0  0  0  0  0  0  0  0  0
  196.5657  184.6705  159.1603 C   0  0  0  0  0  0  0  0  0  0  0  0
  196.5527  182.3082  156.1938 C   0  0  0  0  0  0  0  0  0  0  0  0
  200.0397  181.7874  156.3634 N   0  0  0  0  0  0  0  0  0  0  0  0
  200.9952  181.6610  157.3839 C   0  0  0  0  0  0  0  0  0  0  0  0
  201.7267  180.4588  157.5153 C   0  0  0  0  0  0  0  0  0  0  0  0
  202.6882  180.3437  158.5483 C   0  0  0  0  0  0  0  0  0  0  0  0
  202.9269  181.4079  159.4374 C   0  0  0  0  0  0  0  0  0  0  0  0
  202.1967  182.6001  159.3053 C   0  0  0  0  0  0  0  0  0  0  0  0
  201.2376  182.7258  158.2836 C   0  0  0  0  0  0  0  0  0  0  0  0
  201.5284  179.2969  156.5376 C   0  0  1  0  0  0  0  0  0  0  0  0
  202.7462  179.0461  155.7209 N   0  0  0  0  0  0  0  0  0  0  0  0
  203.3299  180.2752  155.1161 C   0  0  0  0  0  0  0  0  0  0  0  0
  202.5620  177.9899  154.6988 C   0  0  0  0  0  0  0  0  0  0  0  0
  201.1797  178.0437  157.2277 C   0  0  0  0  0  0  0  0  0  0  0  0
  200.9102  177.0532  157.7618 N   0  0  0  0  0  0  0  0  0  0  0  0
  198.9925  177.7512  150.9743 H   0  0  0  0  0  0  0  0  0  0  0  0
  198.8150  179.0911  153.0323 H   0  0  0  0  0  0  0  0  0  0  0  0
  195.6188  181.3982  151.2514 H   0  0  0  0  0  0  0  0  0  0  0  0
  195.8176  180.0242  149.1841 H   0  0  0  0  0  0  0  0  0  0  0  0
  196.3018  181.9246  153.5393 H   0  0  0  0  0  0  0  0  0  0  0  0
  194.2433  182.5868  157.7713 H   0  0  0  0  0  0  0  0  0  0  0  0
  192.7814  183.8059  159.3371 H   0  0  0  0  0  0  0  0  0  0  0  0
  193.7168  185.5730  160.8102 H   0  0  0  0  0  0  0  0  0  0  0  0
  196.1443  186.1336  160.6964 H   0  0  0  0  0  0  0  0  0  0  0  0
  197.6088  184.9433  159.1006 H   0  0  0  0  0  0  0  0  0  0  0  0
  195.5883  182.1762  155.7190 H   0  0  0  0  0  0  0  0  0  0  0  0
  200.2628  181.3000  155.5102 H   0  0  0  0  0  0  0  0  0  0  0  0
  203.2777  179.4424  158.6406 H   0  0  0  0  0  0  0  0  0  0  0  0
  203.6923  181.3299  160.2007 H   0  0  0  0  0  0  0  0  0  0  0  0
  202.3910  183.4316  159.9666 H   0  0  0  0  0  0  0  0  0  0  0  0
  200.7291  183.6724  158.1738 H   0  0  0  0  0  0  0  0  0  0  0  0
  202.6275  180.7127  154.4063 H   0  0  0  0  0  0  0  0  0  0  0  0
  204.2524  180.0497  154.5840 H   0  0  0  0  0  0  0  0  0  0  0  0
  203.5869  181.0467  155.8390 H   0  0  0  0  0  0  0  0  0  0  0  0
  201.8062  178.2814  153.9664 H   0  0  0  0  0  0  0  0  0  0  0  0
  202.2659  177.0364  155.1353 H   0  0  0  0  0  0  0  0  0  0  0  0
  203.4953  177.8146  154.1682 H   0  0  0  0  0  0  0  0  0  0  0  0
  200.6928  179.4639  155.8522 H   0  0  0  0  0  0  0  0  0  0  0  0
  198.7576  183.1405  158.3482 H   0  0  0  0  0  0  0  0  0  0  0  0
  203.4313  178.6676  156.3761 H   0  0  0  0  0  0  0  0  0  0  0  0
  1  2  1  0
  2  3  1  0
  2  7  2  0
  3  4  2  0
  3 34  1  0
  4  5  1  0
  4 35  1  0
  5  6  2  0
  5  8  1  0
  6  7  1  0
  6 36  1  0
  7 37  1  0
  8  9  2  0
  8 38  1  0
  9 10  1  0
 10 11  1  0
 10 20  1  0
 11 12  2  0
 11 21  1  0
 12 13  1  0
 12 57  1  0
 13 14  1  0
 13 20  2  0
 14 15  2  0
 14 19  1  0
 15 16  1  0
 15 39  1  0
 16 17  2  0
 16 40  1  0
 17 18  1  0
 17 41  1  0
 18 19  2  0
 18 42  1  0
 19 43  1  0
 20 44  1  0
 21 22  1  0
 21 45  1  0
 22 23  1  0
 22 27  2  0
 23 24  2  0
 23 28  1  0
 24 25  1  0
 24 46  1  0
 25 26  2  0
 25 47  1  0
 26 27  1  0
 26 48  1  0
 27 49  1  0
 28 29  1  0
 28 32  1  0
 28 56  1  6
 29 30  1  0
 29 31  1  0
 29 58  1  0
 30 50  1  0
 30 51  1  0
 30 52  1  0
 31 53  1  0
 31 54  1  0
 31 55  1  0
 32 33  3  0
M  CHG  2  12   1  29   1
M  END
>  <s_epik_Chemistry_Notes>  (24) 
This compound has an imine and may undergo hydrolysis.

>  <s_epik_cmdline>  (24) 
J2VwaWtfcHl0aG9uJywgJy1waCcsICc3LjAwMDAwMCcsICctcGh0JywgJzIuMDAwMDAwJywgJy1tcycsICcxNicsICctdG4nLCAnOCcsICctbWEnLCAnMjAwJywgJy1pbWFlJywgJzxpbmZpbGUubWFlPicsICctb21hZScsICc8b3V0ZmlsZS5tYWU+Jw==

>  <s_epik_input>  (24) 
Q2xjMVtjSF1bY0hdYyhbY0hdW2NIXTEpL1tDSF09Ti9uMmMoW05IXWMzYyhbQ0BIXShDI04pTihbQ0gzXSlbQ0gzXSlbY0hdW2NIXVtjSF1bY0hdMyluYyhbY0hdMiktYzRbY0hdW2NIXVtjSF1bY0hdW2NIXTQ=

>  <s_i_glide_gridfile>  (24) 
ATP-Grid

>  <s_lp_Force_Field>  (24) 
OPLS_2005

>  <s_lp_Variant>  (24) 
rxn102c____EMOL3728737____EMOL50763906-5

>  <s_lp_label>  (24) 
2506_sdstereoexpander_1_neutralizer_1_epik_3_stereoizer_1

>  <s_m_source_file>  (24) 
ATP-VSW-LIGPREP-003-in.maegz

>  <s_sd_BIOSOLVEIT.INFINISEE\_QUERY\_NAME>  (24) 
Ref-Lig

>  <s_sd_BIOSOLVEIT.INFINISEE\_QUERY\_SMILES>  (24) 
S(c1nc2c(cc1C[NH2+]Cc3ccc(cc3)C[NH+](C)C)cccc2)Cc4ccccc4

>  <s_sd_BIOSOLVEIT.INFINISEE\_REACTION\_NAME>  (24) 
rxn102c

>  <s_sd_BIOSOLVEIT.INFINISEE\_REAGENT1\_NAME>  (24) 
EMOL3728737

>  <s_sd_BIOSOLVEIT.INFINISEE\_REAGENT1\_SMILES>  (24) 
Clc1c(cccc1)C(N(C)C)C#N

>  <s_sd_BIOSOLVEIT.INFINISEE\_REAGENT2\_NAME>  (24) 
EMOL50763906

>  <s_sd_BIOSOLVEIT.INFINISEE\_REAGENT2\_SMILES>  (24) 
Clc1ccc(cc1)C=NN2C(=NC(c3ccccc3)=C2)N

>  <s_sd_BIOSOLVEIT.INFINISEE\_SPACE>  (24) 
eXplore_7tr_2022-12

>  <s_vsw_compound_code>  (24) 
80163

>  <s_vsw_variant>  (24) 
80163-5

>  <r_epik_Charging_Adjusted_Penalty>  (24) 
3.0976700076955499

>  <r_epik_Ionization_Penalty>  (24) 
1.7562

>  <r_epik_Ionization_Penalty_Charging>  (24) 
1.4306000000000001

>  <r_epik_Ionization_Penalty_Neutral>  (24) 
0.3256

>  <r_epik_State_Penalty>  (24) 
1.6671

>  <r_i_docking_score>  (24) 
-3.6732833036651802

>  <r_i_glide_ecoul>  (24) 
-11.470827102661101

>  <r_i_glide_eff_state_penalty>  (24) 
1.6671

>  <r_i_glide_einternal>  (24) 
5.7091264724731401

>  <r_i_glide_emodel>  (24) 
-67.187426248152804

>  <r_i_glide_energy>  (24) 
-46.405603408813498

>  <r_i_glide_erotb>  (24) 
0.57756189636664401

>  <r_i_glide_esite>  (24) 
-0.101858237561232

>  <r_i_glide_evdw>  (24) 
-34.934776306152301

>  <r_i_glide_gscore>  (24) 
-5.3403833036651802

>  <r_i_glide_hbond>  (24) 
0

>  <r_i_glide_ligand_efficiency>  (24) 
-0.111311615262581

>  <r_i_glide_ligand_efficiency_ln>  (24) 
-0.81691918749207904

>  <r_i_glide_ligand_efficiency_sa>  (24) 
-0.35703582686589103

>  <r_i_glide_lipo>  (24) 
-1.52713437411899

>  <r_i_glide_metal>  (24) 
-0

>  <r_i_glide_rewards>  (24) 
-0.82158970764482198

>  <r_lp_Energy>  (24) 
41.914414999999998

>  <r_qp_ACxDN^.5/SA>  (24) 
0.0091658

>  <r_qp_CIQPlogS>  (24) 
-6.9900000000000002

>  <r_qp_EA(eV)>  (24) 
1.127

>  <r_qp_FISA>  (24) 
80.926000000000002

>  <r_qp_FOSA>  (24) 
134.345

>  <r_qp_IP(eV)>  (24) 
8.1010000000000009

>  <r_qp_Jm>  (24) 
0.00050426977390006405

>  <r_qp_PISA>  (24) 
476.774

>  <r_qp_PSA>  (24) 
62.545000000000002

>  <r_qp_PercentHumanOralAbsorption>  (24) 
100

>  <r_qp_QPPCaco>  (24) 
422.06599999999997

>  <r_qp_QPPMDCK>  (24) 
531.96299999999997

>  <r_qp_QPlogBB>  (24) 
-0.193

>  <r_qp_QPlogHERG>  (24) 
-7.8109999999999999

>  <r_qp_QPlogKhsa>  (24) 
0.72099999999999997

>  <r_qp_QPlogKp>  (24) 
-2.6259999999999999

>  <r_qp_QPlogPC16>  (24) 
16.059999999999999

>  <r_qp_QPlogPo/w>  (24) 
4.9560000000000004

>  <r_qp_QPlogPoct>  (24) 
22.434999999999999

>  <r_qp_QPlogPw>  (24) 
11.970000000000001

>  <r_qp_QPlogS>  (24) 
-6.3289999999999997

>  <r_qp_QPpolrz>  (24) 
49.810000000000002

>  <r_qp_SASA>  (24) 
763.70799999999997

>  <r_qp_SAamideO>  (24) 
0

>  <r_qp_SAfluorine>  (24) 
0

>  <r_qp_WPSA>  (24) 
71.662999999999997

>  <r_qp_accptHB>  (24) 
7

>  <r_qp_dip^2/V>  (24) 
0.0186109

>  <r_qp_dipole>  (24) 
5.1280000000000001

>  <r_qp_donorHB>  (24) 
1

>  <r_qp_glob>  (24) 
0.797377

>  <r_qp_mol_MW>  (24) 
454.96100000000001

>  <r_qp_volume>  (24) 
1412.989

>  <r_sd_BIOSOLVEIT.INFINISEE\_FTREES\_SIMILARITY>  (24) 
0.91400000000000003

>  <r_sd_BIOSOLVEIT.LOGP>  (24) 
4.5384799999999998

>  <r_sd_BIOSOLVEIT.MOLECULAR\_WEIGHT>  (24) 
455.971

>  <r_sd_BIOSOLVEIT.TPSA>  (24) 
70.439999999999998

>  <i_epik_Tot_Q>  (24) 
2

>  <i_epik_Tot_abs_Q>  (24) 
2

>  <i_f3d_flags>  (24) 
0

>  <i_i_glide_confnum>  (24) 
3

>  <i_i_glide_lignum>  (24) 
1090

>  <i_i_glide_posenum>  (24) 
1

>  <i_i_glide_rotatable_bonds>  (24) 
7

>  <i_lp_mmshare_version>  (24) 
65135

>  <i_m_ct_format>  (24) 
2

>  <i_m_source_file_index>  (24) 
2506

>  <i_qp_#NandO>  (24) 
6

>  <i_qp_#acid>  (24) 
0

>  <i_qp_#amide>  (24) 
0

>  <i_qp_#amidine>  (24) 
0

>  <i_qp_#amine>  (24) 
1

>  <i_qp_#in34>  (24) 
0

>  <i_qp_#in56>  (24) 
23

>  <i_qp_#metab>  (24) 
4

>  <i_qp_#nonHatm>  (24) 
33

>  <i_qp_#noncon>  (24) 
0

>  <i_qp_#ringatoms>  (24) 
23

>  <i_qp_#rotor>  (24) 
8

>  <i_qp_#rtvFG>  (24) 
0

>  <i_qp_#stars>  (24) 
1

>  <i_qp_CNS>  (24) 
1

>  <i_qp_HumanOralAbsorption>  (24) 
1

>  <i_qp_RuleOfFive>  (24) 
0

>  <i_qp_RuleOfThree>  (24) 
1

>  <i_sd_BIOSOLVEIT.INFINISEE\_RESULT\_RANK>  (24) 
31327

>  <i_sd_version>  (24) 
0

>  <b_lp_Chiralities_Consistent>  (24) 
1

>  <b_sd_chiral_flag>  (24) 
0

>  <canonical_id>  (24) 
ATP-HTVS-B9C46F2E092C

>  <compound_code>  (24) 
80163

>  <title>  (24) 
rxn102c____EMOL3728737____EMOL50763906

>  <variant>  (24) 
80163-5

>  <source_file>  (24) 
运行/运行/ATP-VSW/ATP-VSW-DOCK_HTVS_1-003_lib/ATP-VSW-DOCK_HTVS_1-003_lib.mae

>  <canonical_smiles>  (24) 
C[NH+](C)[C@@H](C#N)c1ccccc1Nc1[nH+]c(-c2ccccc2)cn1/N=C/c1ccc(Cl)cc1

>  <scaffold>  (24) 
C(=Nn1cc(-c2ccccc2)[nH+]c1Nc1ccccc1)c1ccccc1

>  <molecular_formula>  (24) 
C26H25ClN6+2

>  <acquisition_id_v2>  (24) 
ATP-ACQ2-0024

>  <selection_arm_v2>  (24) 
scaffold_score_exploration

>  <priority_v2>  (24) 
P0

$$$$
