ATP-ACQ2-0001
     RDKit          3D

 60 62  0  0  0  0  0  0  0  0999 V2000
  197.0565  185.5114  159.7188 S   0  0  0  0  0  0  0  0  0  0  0  0
  195.3677  185.0545  159.8569 C   0  0  0  0  0  0  0  0  0  0  0  0
  195.1177  183.8031  159.4738 N   0  0  0  0  0  0  0  0  0  0  0  0
  196.2717  183.1359  159.0632 C   0  0  0  0  0  0  0  0  0  0  0  0
  197.4062  183.9057  159.1642 C   0  0  0  0  0  0  0  0  0  0  0  0
  196.1835  181.7389  158.5373 C   0  0  0  0  0  0  0  0  0  0  0  0
  195.9933  181.7409  157.0760 N   0  0  0  0  0  0  0  0  0  0  0  0
  197.1678  182.1842  156.2975 C   0  0  0  0  0  0  0  0  0  0  0  0
  197.1558  181.6184  154.8833 C   0  0  0  0  0  0  0  0  0  0  0  0
  197.4963  180.2648  154.5907 C   0  0  0  0  0  0  0  0  0  0  0  0
  197.3991  179.8192  153.2521 C   0  0  0  0  0  0  0  0  0  0  0  0
  197.0489  180.7013  152.2133 C   0  0  0  0  0  0  0  0  0  0  0  0
  197.0132  180.2568  150.9316 F   0  0  0  0  0  0  0  0  0  0  0  0
  196.7449  182.0397  152.5020 C   0  0  0  0  0  0  0  0  0  0  0  0
  196.7835  182.4897  153.8328 C   0  0  0  0  0  0  0  0  0  0  0  0
  197.9459  179.2639  155.6693 C   0  0  0  0  0  0  0  0  0  0  0  0
  199.4262  179.0545  155.7146 N   0  0  1  0  0  0  0  0  0  0  0  0
  199.8796  178.4890  157.0175 C   0  0  0  0  0  0  0  0  0  0  0  0
  201.4002  178.5668  157.2400 C   0  0  0  0  0  0  0  0  0  0  0  0
  199.9345  178.2635  154.5620 C   0  0  0  0  0  0  0  0  0  0  0  0
  194.3159  185.9878  160.3475 C   0  0  0  0  0  0  0  0  0  0  0  0
  194.5599  186.2362  161.7269 O   0  0  0  0  0  0  0  0  0  0  0  0
  193.7166  187.1335  162.3199 C   0  0  0  0  0  0  0  0  0  0  0  0
  192.6935  186.6927  163.1904 C   0  0  0  0  0  0  0  0  0  0  0  0
  191.8851  187.6378  163.8581 C   0  0  0  0  0  0  0  0  0  0  0  0
  192.0528  189.0235  163.6531 C   0  0  0  0  0  0  0  0  0  0  0  0
  191.2413  189.8994  164.3259 O   0  0  0  0  0  0  0  0  0  0  0  0
  191.3965  191.2913  164.0759 C   0  0  0  0  0  0  0  0  0  0  0  0
  193.0751  189.4509  162.7597 C   0  0  0  0  0  0  0  0  0  0  0  0
  193.8983  188.5059  162.1302 C   0  0  0  0  0  0  0  0  0  0  0  0
  195.8351  180.7576  156.8909 H   0  0  0  0  0  0  0  0  0  0  0  0
  198.4163  183.6377  158.9041 H   0  0  0  0  0  0  0  0  0  0  0  0
  197.0808  181.1697  158.7768 H   0  0  0  0  0  0  0  0  0  0  0  0
  195.3647  181.1898  158.9987 H   0  0  0  0  0  0  0  0  0  0  0  0
  197.1682  183.2793  156.2695 H   0  0  0  0  0  0  0  0  0  0  0  0
  198.1079  181.8943  156.7720 H   0  0  0  0  0  0  0  0  0  0  0  0
  197.6036  178.7922  152.9934 H   0  0  0  0  0  0  0  0  0  0  0  0
  196.4545  182.7171  151.7085 H   0  0  0  0  0  0  0  0  0  0  0  0
  196.5136  183.5137  154.0403 H   0  0  0  0  0  0  0  0  0  0  0  0
  197.6076  179.6185  156.6388 H   0  0  0  0  0  0  0  0  0  0  0  0
  197.4335  178.3096  155.5287 H   0  0  0  0  0  0  0  0  0  0  0  0
  199.4079  179.0417  157.8285 H   0  0  0  0  0  0  0  0  0  0  0  0
  199.5502  177.4533  157.1081 H   0  0  0  0  0  0  0  0  0  0  0  0
  201.6625  178.1337  158.2088 H   0  0  0  0  0  0  0  0  0  0  0  0
  201.7395  179.6021  157.2393 H   0  0  0  0  0  0  0  0  0  0  0  0
  201.9663  178.0162  156.4880 H   0  0  0  0  0  0  0  0  0  0  0  0
  199.4762  177.2705  154.5681 H   0  0  0  0  0  0  0  0  0  0  0  0
  201.0198  178.1363  154.5842 H   0  0  0  0  0  0  0  0  0  0  0  0
  199.7098  178.7439  153.6076 H   0  0  0  0  0  0  0  0  0  0  0  0
  194.3478  186.9057  159.7625 H   0  0  0  0  0  0  0  0  0  0  0  0
  193.3318  185.5395  160.2323 H   0  0  0  0  0  0  0  0  0  0  0  0
  192.5523  185.6395  163.3696 H   0  0  0  0  0  0  0  0  0  0  0  0
  191.1450  187.3101  164.5584 H   0  0  0  0  0  0  0  0  0  0  0  0
  190.7046  191.8925  164.6615 H   0  0  0  0  0  0  0  0  0  0  0  0
  191.2101  191.5093  163.0283 H   0  0  0  0  0  0  0  0  0  0  0  0
  192.3919  191.6141  164.3595 H   0  0  0  0  0  0  0  0  0  0  0  0
  193.2746  190.5031  162.5329 H   0  0  0  0  0  0  0  0  0  0  0  0
  194.6676  188.8431  161.4421 H   0  0  0  0  0  0  0  0  0  0  0  0
  199.8268  179.9766  155.6639 H   0  0  0  0  0  0  0  0  0  0  0  0
  195.1609  182.2429  156.7904 H   0  0  0  0  0  0  0  0  0  0  0  0
  1  2  1  0
  1  5  1  0
  2  3  2  0
  2 21  1  0
  3  4  1  0
  4  5  2  0
  4  6  1  0
  5 32  1  0
  6  7  1  0
  6 33  1  0
  6 34  1  0
  7  8  1  0
  7 31  1  0
  7 60  1  0
  8  9  1  0
  8 35  1  0
  8 36  1  0
  9 10  2  0
  9 15  1  0
 10 11  1  0
 10 16  1  0
 11 12  2  0
 11 37  1  0
 12 13  1  0
 12 14  1  0
 14 15  2  0
 14 38  1  0
 15 39  1  0
 16 17  1  0
 16 40  1  0
 16 41  1  0
 17 18  1  0
 17 20  1  0
 17 59  1  6
 18 19  1  0
 18 42  1  0
 18 43  1  0
 19 44  1  0
 19 45  1  0
 19 46  1  0
 20 47  1  0
 20 48  1  0
 20 49  1  0
 21 22  1  0
 21 50  1  0
 21 51  1  0
 22 23  1  0
 23 24  1  0
 23 30  2  0
 24 25  2  0
 24 52  1  0
 25 26  1  0
 25 53  1  0
 26 27  1  0
 26 29  2  0
 27 28  1  0
 28 54  1  0
 28 55  1  0
 28 56  1  0
 29 30  1  0
 29 57  1  0
 30 58  1  0
M  CHG  2   7   1  17   1
M  END
>  <s_epik_cmdline>  (1) 
J2VwaWtfcHl0aG9uJywgJy1waCcsICc3LjAwMDAwMCcsICctcGh0JywgJzIuMDAwMDAwJywgJy1tcycsICcxNicsICctdG4nLCAnOCcsICctbWEnLCAnMjAwJywgJy1pbWFlJywgJzxpbmZpbGUubWFlPicsICctb21hZScsICc8b3V0ZmlsZS5tYWU+Jw==

>  <s_epik_input>  (1) 
W0NIM11PYyhbY0hdW2NIXTEpW2NIXVtjSF1jMU9bQ0gyXWMyc1tjSF1jKG4yKVtDSDJdW05IXVtDSDJdYzNjKFtjSF1jKEYpW2NIXVtjSF0zKVtDSDJdTihbQ0gzXSlbQ0gyXVtDSDNd

>  <s_i_glide_gridfile>  (1) 
ATP-Grid

>  <s_lp_Force_Field>  (1) 
OPLS_2005

>  <s_lp_Variant>  (1) 
m_270004bbb____24792670____7548988-1

>  <s_lp_label>  (1) 
1379_sdstereoexpander_1_neutralizer_1_epik_1_stereoizer_1

>  <s_m_source_file>  (1) 
ATP-VSW-LIGPREP-002-in.maegz

>  <s_sd_BIOSOLVEIT.INFINISEE\_QUERY\_NAME>  (1) 
Ref-Lig

>  <s_sd_BIOSOLVEIT.INFINISEE\_QUERY\_SMILES>  (1) 
S(c1nc2c(cc1C[NH2+]Cc3ccc(cc3)C[NH+](C)C)cccc2)Cc4ccccc4

>  <s_sd_BIOSOLVEIT.INFINISEE\_REACTION\_NAME>  (1) 
m_270004bbb

>  <s_sd_BIOSOLVEIT.INFINISEE\_REAGENT1\_SMILES>  (1) 
[R1*]NCc1c(cc(F)cc1)CN(CC)C

>  <s_sd_BIOSOLVEIT.INFINISEE\_REAGENT2\_SMILES>  (1) 
[R1*]CC=1N=C(SC1)COc2ccc(OC)cc2

>  <s_sd_BIOSOLVEIT.INFINISEE\_SPACE>  (1) 
REALSpace_44bn_2023-08

>  <s_vsw_compound_code>  (1) 
44098

>  <s_vsw_variant>  (1) 
44098-1

>  <r_epik_Charging_Adjusted_Penalty>  (1) 
0.47514642973629001

>  <r_epik_Ionization_Penalty>  (1) 
0.23899999999999999

>  <r_epik_Ionization_Penalty_Charging>  (1) 
0.23899999999999999

>  <r_epik_Ionization_Penalty_Neutral>  (1) 
0

>  <r_epik_State_Penalty>  (1) 
0.23619999999999999

>  <r_i_docking_score>  (1) 
-6.7289102870080901

>  <r_i_glide_ecoul>  (1) 
-18.263252258300799

>  <r_i_glide_eff_state_penalty>  (1) 
0.23619999999999999

>  <r_i_glide_einternal>  (1) 
12.567302703857401

>  <r_i_glide_emodel>  (1) 
-91.086170915954398

>  <r_i_glide_energy>  (1) 
-58.038726806640597

>  <r_i_glide_erotb>  (1) 
0.96117231633538802

>  <r_i_glide_esite>  (1) 
-0.153333407566351

>  <r_i_glide_evdw>  (1) 
-39.775474548339801

>  <r_i_glide_gscore>  (1) 
-6.9651102870080903

>  <r_i_glide_hbond>  (1) 
-0.36320661323952602

>  <r_i_glide_ligand_efficiency>  (1) 
-0.22429700956693599

>  <r_i_glide_ligand_efficiency_ln>  (1) 
-1.5288817345580701

>  <r_i_glide_ligand_efficiency_sa>  (1) 
-0.69694295832448105

>  <r_i_glide_lipo>  (1) 
-1.6274739775753

>  <r_i_glide_metal>  (1) 
-0

>  <r_i_glide_rewards>  (1) 
-1.0540070388001901

>  <r_lp_Energy>  (1) 
23.150915999999999

>  <r_lp_tautomer_probability>  (1) 
1

>  <r_qp_ACxDN^.5/SA>  (1) 
0.0085348000000000004

>  <r_qp_CIQPlogS>  (1) 
-4.2679999999999998

>  <r_qp_EA(eV)>  (1) 
0.81799999999999995

>  <r_qp_FISA>  (1) 
18.178000000000001

>  <r_qp_FOSA>  (1) 
371.44499999999999

>  <r_qp_IP(eV)>  (1) 
8.6750000000000007

>  <r_qp_Jm>  (1) 
0.0071453683930328901

>  <r_qp_PISA>  (1) 
283.39999999999998

>  <r_qp_PSA>  (1) 
45.182000000000002

>  <r_qp_PercentHumanOralAbsorption>  (1) 
100

>  <r_qp_QPPCaco>  (1) 
414.303

>  <r_qp_QPPMDCK>  (1) 
713.90499999999997

>  <r_qp_QPlogBB>  (1) 
0.71999999999999997

>  <r_qp_QPlogHERG>  (1) 
-7.774

>  <r_qp_QPlogKhsa>  (1) 
0.60699999999999998

>  <r_qp_QPlogKp>  (1) 
-3.9249999999999998

>  <r_qp_QPlogPC16>  (1) 
13.486000000000001

>  <r_qp_QPlogPo/w>  (1) 
4.7089999999999996

>  <r_qp_QPlogPoct>  (1) 
19.518000000000001

>  <r_qp_QPlogPw>  (1) 
9.0749999999999993

>  <r_qp_QPlogS>  (1) 
-3.8540000000000001

>  <r_qp_QPpolrz>  (1) 
44.761000000000003

>  <r_qp_SASA>  (1) 
761.58900000000006

>  <r_qp_SAamideO>  (1) 
0

>  <r_qp_SAfluorine>  (1) 
46.972000000000001

>  <r_qp_WPSA>  (1) 
88.566000000000003

>  <r_qp_accptHB>  (1) 
6.5

>  <r_qp_dip^2/V>  (1) 
0.0054665

>  <r_qp_dipole>  (1) 
2.7480000000000002

>  <r_qp_donorHB>  (1) 
1

>  <r_qp_glob>  (1) 
0.78752089999999997

>  <r_qp_mol_MW>  (1) 
429.55099999999999

>  <r_qp_volume>  (1) 
1381.105

>  <r_sd_BIOSOLVEIT.INFINISEE\_FTREES\_SIMILARITY>  (1) 
0.90900000000000003

>  <r_sd_BIOSOLVEIT.LOGP>  (1) 
2.1680000000000001

>  <r_sd_BIOSOLVEIT.MOLECULAR\_WEIGHT>  (1) 
431.572

>  <r_sd_BIOSOLVEIT.TPSA>  (1) 
52.399999999999999

>  <i_epik_Tot_Q>  (1) 
2

>  <i_epik_Tot_abs_Q>  (1) 
2

>  <i_f3d_flags>  (1) 
0

>  <i_i_glide_confnum>  (1) 
8

>  <i_i_glide_lignum>  (1) 
481

>  <i_i_glide_posenum>  (1) 
7

>  <i_i_glide_rotatable_bonds>  (1) 
11

>  <i_lp_mmshare_version>  (1) 
65135

>  <i_m_ct_format>  (1) 
2

>  <i_m_source_file_index>  (1) 
1379

>  <i_qp_#NandO>  (1) 
5

>  <i_qp_#acid>  (1) 
0

>  <i_qp_#amide>  (1) 
0

>  <i_qp_#amidine>  (1) 
0

>  <i_qp_#amine>  (1) 
2

>  <i_qp_#in34>  (1) 
0

>  <i_qp_#in56>  (1) 
17

>  <i_qp_#metab>  (1) 
9

>  <i_qp_#nonHatm>  (1) 
30

>  <i_qp_#noncon>  (1) 
0

>  <i_qp_#ringatoms>  (1) 
17

>  <i_qp_#rotor>  (1) 
11

>  <i_qp_#rtvFG>  (1) 
0

>  <i_qp_#stars>  (1) 
1

>  <i_qp_CNS>  (1) 
2

>  <i_qp_HumanOralAbsorption>  (1) 
3

>  <i_qp_RuleOfFive>  (1) 
0

>  <i_qp_RuleOfThree>  (1) 
1

>  <i_sd_BIOSOLVEIT.INFINISEE\_REAGENT1\_NAME>  (1) 
24792670

>  <i_sd_BIOSOLVEIT.INFINISEE\_REAGENT2\_NAME>  (1) 
7548988

>  <i_sd_BIOSOLVEIT.INFINISEE\_RESULT\_RANK>  (1) 
51332

>  <i_sd_version>  (1) 
0

>  <b_lp_Chiralities_Consistent>  (1) 
1

>  <b_sd_chiral_flag>  (1) 
0

>  <canonical_id>  (1) 
ATP-HTVS-66618B00A972

>  <compound_code>  (1) 
44098

>  <title>  (1) 
m_270004bbb____24792670____7548988

>  <variant>  (1) 
44098-1

>  <source_file>  (1) 
运行/运行/ATP-VSW/ATP-VSW-DOCK_HTVS_1-002_lib.maegz

>  <canonical_smiles>  (1) 
CC[N@@H+](C)Cc1cc(F)ccc1C[NH2+]Cc1csc(COc2ccc(OC)cc2)n1

>  <scaffold>  (1) 
c1ccc(C[NH2+]Cc2csc(COc3ccccc3)n2)cc1

>  <molecular_formula>  (1) 
C23H30FN3O2S+2

>  <acquisition_id_v2>  (1) 
ATP-ACQ2-0001

>  <selection_arm_v2>  (1) 
exploitation

>  <priority_v2>  (1) 
P0

$$$$
ATP-ACQ2-0002
     RDKit          3D

 59 61  0  0  0  0  0  0  0  0999 V2000
  198.4741  185.5134  152.5957 Cl  0  0  0  0  0  0  0  0  0  0  0  0
  197.9734  185.0522  154.1862 C   0  0  0  0  0  0  0  0  0  0  0  0
  197.5752  183.7123  154.4362 C   0  0  0  0  0  0  0  0  0  0  0  0
  197.1972  183.3358  155.7316 C   0  0  0  0  0  0  0  0  0  0  0  0
  197.1489  184.2617  156.7887 C   0  0  0  0  0  0  0  0  0  0  0  0
  196.7402  183.8986  158.1231 N   0  0  0  0  0  0  0  0  0  0  0  0
  197.5187  184.0650  159.2132 C   0  0  0  0  0  0  0  0  0  0  0  0
  197.1064  183.8332  160.3599 O   0  0  0  0  0  0  0  0  0  0  0  0
  198.9111  184.5138  159.0758 C   0  0  0  0  0  0  0  0  0  0  0  0
  199.2517  186.2205  159.1877 S   0  0  0  0  0  0  0  0  0  0  0  0
  200.9291  185.9316  158.8340 C   0  0  0  0  0  0  0  0  0  0  0  0
  201.9782  187.2748  158.5838 Cl  0  0  0  0  0  0  0  0  0  0  0  0
  201.2308  184.6044  158.7888 C   0  0  0  0  0  0  0  0  0  0  0  0
  202.5370  184.0801  158.6179 N   0  0  0  0  0  0  0  0  0  0  0  0
  202.8204  182.6966  158.2849 C   0  0  0  0  0  0  0  0  0  0  0  0
  202.0114  182.1503  157.1225 C   0  0  0  0  0  0  0  0  0  0  0  0
  201.1691  181.0389  157.3258 C   0  0  0  0  0  0  0  0  0  0  0  0
  200.4235  180.4794  156.2771 C   0  0  0  0  0  0  0  0  0  0  0  0
  200.4721  181.0979  154.9975 C   0  0  0  0  0  0  0  0  0  0  0  0
  201.2715  182.2422  154.7963 C   0  0  0  0  0  0  0  0  0  0  0  0
  202.0467  182.7636  155.8497 C   0  0  0  0  0  0  0  0  0  0  0  0
  199.5556  179.2478  156.5131 C   0  0  0  0  0  0  0  0  0  0  0  0
  200.3660  178.0109  156.6895 N   0  0  0  0  0  0  0  0  0  0  0  0
  199.6429  176.7820  156.2850 C   0  0  0  0  0  0  0  0  0  0  0  0
  200.9440  177.8536  158.0443 C   0  0  0  0  0  0  0  0  0  0  0  0
  200.0778  183.7802  158.9570 C   0  0  0  0  0  0  0  0  0  0  0  0
  195.3792  183.3525  158.2673 C   0  0  0  0  0  0  0  0  0  0  0  0
  195.3121  181.8247  158.1204 C   0  0  0  0  0  0  0  0  0  0  0  0
  193.9511  181.3639  157.9085 N   0  0  0  0  0  0  0  0  0  0  0  0
  197.4818  185.6252  156.5063 C   0  0  0  0  0  0  0  0  0  0  0  0
  197.9397  185.9899  155.2182 C   0  0  0  0  0  0  0  0  0  0  0  0
  194.0271  180.3699  157.7530 H   0  0  0  0  0  0  0  0  0  0  0  0
  193.5775  181.8197  157.0825 H   0  0  0  0  0  0  0  0  0  0  0  0
  197.5658  182.9926  153.6343 H   0  0  0  0  0  0  0  0  0  0  0  0
  196.9333  182.2822  155.8581 H   0  0  0  0  0  0  0  0  0  0  0  0
  203.3136  184.7155  158.6697 H   0  0  0  0  0  0  0  0  0  0  0  0
  203.8819  182.5992  158.0468 H   0  0  0  0  0  0  0  0  0  0  0  0
  202.6554  182.0848  159.1758 H   0  0  0  0  0  0  0  0  0  0  0  0
  201.1069  180.6415  158.3322 H   0  0  0  0  0  0  0  0  0  0  0  0
  199.8832  180.7100  154.1813 H   0  0  0  0  0  0  0  0  0  0  0  0
  201.2805  182.7312  153.8329 H   0  0  0  0  0  0  0  0  0  0  0  0
  202.6520  183.6472  155.6999 H   0  0  0  0  0  0  0  0  0  0  0  0
  198.9025  179.4202  157.3691 H   0  0  0  0  0  0  0  0  0  0  0  0
  198.8901  179.1292  155.6608 H   0  0  0  0  0  0  0  0  0  0  0  0
  198.7652  176.6343  156.9073 H   0  0  0  0  0  0  0  0  0  0  0  0
  200.2886  175.9106  156.4009 H   0  0  0  0  0  0  0  0  0  0  0  0
  199.3286  176.8173  155.2403 H   0  0  0  0  0  0  0  0  0  0  0  0
  200.1484  177.8006  158.7933 H   0  0  0  0  0  0  0  0  0  0  0  0
  201.6301  178.6488  158.3074 H   0  0  0  0  0  0  0  0  0  0  0  0
  201.5180  176.9303  158.1090 H   0  0  0  0  0  0  0  0  0  0  0  0
  200.0959  182.7103  158.9795 H   0  0  0  0  0  0  0  0  0  0  0  0
  194.9394  183.6113  159.2378 H   0  0  0  0  0  0  0  0  0  0  0  0
  194.7189  183.8393  157.5560 H   0  0  0  0  0  0  0  0  0  0  0  0
  195.8605  181.4484  157.2587 H   0  0  0  0  0  0  0  0  0  0  0  0
  195.7462  181.3200  158.9992 H   0  0  0  0  0  0  0  0  0  0  0  0
  197.3773  186.3866  157.2600 H   0  0  0  0  0  0  0  0  0  0  0  0
  198.2402  187.0129  155.0424 H   0  0  0  0  0  0  0  0  0  0  0  0
  193.3484  181.5588  158.7201 H   0  0  0  0  0  0  0  0  0  0  0  0
  201.1462  178.0907  156.0471 H   0  0  0  0  0  0  0  0  0  0  0  0
  1  2  1  0
  2  3  1  0
  2 31  2  0
  3  4  2  0
  3 34  1  0
  4  5  1  0
  4 35  1  0
  5  6  1  0
  5 30  2  0
  6  7  1  0
  6 27  1  0
  7  8  2  0
  7  9  1  0
  9 10  1  0
  9 26  2  0
 10 11  1  0
 11 12  1  0
 11 13  2  0
 13 14  1  0
 13 26  1  0
 14 15  1  0
 14 36  1  0
 15 16  1  0
 15 37  1  0
 15 38  1  0
 16 17  2  0
 16 21  1  0
 17 18  1  0
 17 39  1  0
 18 19  2  0
 18 22  1  0
 19 20  1  0
 19 40  1  0
 20 21  2  0
 20 41  1  0
 21 42  1  0
 22 23  1  0
 22 43  1  0
 22 44  1  0
 23 24  1  0
 23 25  1  0
 23 59  1  0
 24 45  1  0
 24 46  1  0
 24 47  1  0
 25 48  1  0
 25 49  1  0
 25 50  1  0
 26 51  1  0
 27 28  1  0
 27 52  1  0
 27 53  1  0
 28 29  1  0
 28 54  1  0
 28 55  1  0
 29 32  1  0
 29 33  1  0
 29 58  1  0
 30 31  1  0
 30 56  1  0
 31 57  1  0
M  CHG  2  23   1  29   1
M  END
>  <s_epik_cmdline>  (2) 
J2VwaWtfcHl0aG9uJywgJy1waCcsICc3LjAwMDAwMCcsICctcGh0JywgJzIuMDAwMDAwJywgJy1tcycsICcxNicsICctdG4nLCAnOCcsICctbWEnLCAnMjAwJywgJy1pbWFlJywgJzxpbmZpbGUubWFlPicsICctb21hZScsICc8b3V0ZmlsZS5tYWU+Jw==

>  <s_epik_input>  (2) 
Q2xjMVtjSF1bY0hdYyhbY0hdW2NIXTEpTihbQ0gyXVtDSDJdW05IMl0pQyg9TyljMnNjKENsKWMoW2NIXTIpW05IXVtDSDJdYzNbY0hdYyhbY0hdW2NIXVtjSF0zKVtDSDJdTihbQ0gzXSlbQ0gzXQ==

>  <s_i_glide_gridfile>  (2) 
ATP-Grid

>  <s_lp_Force_Field>  (2) 
OPLS_2005

>  <s_lp_Variant>  (2) 
rxn512b____EMOL49832880____EMOL44846536____EMOL2873214-1

>  <s_lp_label>  (2) 
2428_sdstereoexpander_1_neutralizer_1_epik_1_stereoizer_1

>  <s_m_source_file>  (2) 
ATP-VSW-LIGPREP-001-in.maegz

>  <s_sd_BIOSOLVEIT.INFINISEE\_QUERY\_NAME>  (2) 
Ref-Lig

>  <s_sd_BIOSOLVEIT.INFINISEE\_QUERY\_SMILES>  (2) 
S(c1nc2c(cc1C[NH2+]Cc3ccc(cc3)C[NH+](C)C)cccc2)Cc4ccccc4

>  <s_sd_BIOSOLVEIT.INFINISEE\_REACTION\_NAME>  (2) 
rxn512b

>  <s_sd_BIOSOLVEIT.INFINISEE\_REAGENT1\_NAME>  (2) 
EMOL49832880

>  <s_sd_BIOSOLVEIT.INFINISEE\_REAGENT1\_SMILES>  (2) 
Clc1ccc(NCCN)cc1

>  <s_sd_BIOSOLVEIT.INFINISEE\_REAGENT2\_NAME>  (2) 
EMOL44846536

>  <s_sd_BIOSOLVEIT.INFINISEE\_REAGENT2\_SMILES>  (2) 
BrC1=C(Cl)SC(C(=O)O)=C1

>  <s_sd_BIOSOLVEIT.INFINISEE\_REAGENT3\_NAME>  (2) 
EMOL2873214

>  <s_sd_BIOSOLVEIT.INFINISEE\_REAGENT3\_SMILES>  (2) 
N(Cc1cc(ccc1)CN)(C)C

>  <s_sd_BIOSOLVEIT.INFINISEE\_SPACE>  (2) 
eXplore_7tr_2022-12

>  <s_vsw_compound_code>  (2) 
77665

>  <s_vsw_variant>  (2) 
77665-1

>  <r_epik_Charging_Adjusted_Penalty>  (2) 
0.098611016270995805

>  <r_epik_Ionization_Penalty>  (2) 
0.049500000000000002

>  <r_epik_Ionization_Penalty_Charging>  (2) 
0.049299999999999997

>  <r_epik_Ionization_Penalty_Neutral>  (2) 
0.0001

>  <r_epik_State_Penalty>  (2) 
0.049299999999999997

>  <r_i_docking_score>  (2) 
-5.3358770128671598

>  <r_i_glide_ecoul>  (2) 
-15.470862388610801

>  <r_i_glide_eff_state_penalty>  (2) 
0.049299999999999997

>  <r_i_glide_einternal>  (2) 
6.7056503295898402

>  <r_i_glide_emodel>  (2) 
-67.079193208922305

>  <r_i_glide_energy>  (2) 
-44.0188245773315

>  <r_i_glide_erotb>  (2) 
0.49381957744099098

>  <r_i_glide_esite>  (2) 
-0.14417805974708001

>  <r_i_glide_evdw>  (2) 
-28.5479621887207

>  <r_i_glide_gscore>  (2) 
-5.3851770128671603

>  <r_i_glide_hbond>  (2) 
-0.330125601631793

>  <r_i_glide_ligand_efficiency>  (2) 
-0.172125064931199

>  <r_i_glide_ligand_efficiency_ln>  (2) 
-1.2034037913933799

>  <r_i_glide_ligand_efficiency_sa>  (2) 
-0.54071034814754904

>  <r_i_glide_lipo>  (2) 
-0.60357593408382204

>  <r_i_glide_metal>  (2) 
-0

>  <r_i_glide_rewards>  (2) 
-1.0530895271178

>  <r_lp_Energy>  (2) 
38.870773

>  <r_lp_tautomer_probability>  (2) 
0.99999274205267796

>  <r_qp_ACxDN^.5/SA>  (2) 
0.0148367

>  <r_qp_CIQPlogS>  (2) 
-3.8450000000000002

>  <r_qp_EA(eV)>  (2) 
0.64000000000000001

>  <r_qp_FISA>  (2) 
108.461

>  <r_qp_FOSA>  (2) 
277.334

>  <r_qp_IP(eV)>  (2) 
8.2080000000000002

>  <r_qp_Jm>  (2) 
0.00015021839111326499

>  <r_qp_PISA>  (2) 
265.33300000000003

>  <r_qp_PSA>  (2) 
71.537000000000006

>  <r_qp_PercentHumanOralAbsorption>  (2) 
69.798000000000002

>  <r_qp_QPPCaco>  (2) 
14.390000000000001

>  <r_qp_QPPMDCK>  (2) 
55.558

>  <r_qp_QPlogBB>  (2) 
-0.082000000000000003

>  <r_qp_QPlogHERG>  (2) 
-8.8360000000000003

>  <r_qp_QPlogKhsa>  (2) 
0.64700000000000002

>  <r_qp_QPlogKp>  (2) 
-5.7489999999999997

>  <r_qp_QPlogPC16>  (2) 
16.52

>  <r_qp_QPlogPo/w>  (2) 
3.7789999999999999

>  <r_qp_QPlogPoct>  (2) 
24.687999999999999

>  <r_qp_QPlogPw>  (2) 
13.369

>  <r_qp_QPlogS>  (2) 
-3.7530000000000001

>  <r_qp_QPpolrz>  (2) 
48.366999999999997

>  <r_qp_SASA>  (2) 
817.18899999999996

>  <r_qp_SAamideO>  (2) 
0

>  <r_qp_SAfluorine>  (2) 
0

>  <r_qp_WPSA>  (2) 
166.06

>  <r_qp_accptHB>  (2) 
7

>  <r_qp_dip^2/V>  (2) 
0.0054473999999999998

>  <r_qp_dipole>  (2) 
2.8199999999999998

>  <r_qp_donorHB>  (2) 
3

>  <r_qp_glob>  (2) 
0.7614493

>  <r_qp_mol_MW>  (2) 
477.45100000000002

>  <r_qp_volume>  (2) 
1459.4770000000001

>  <r_sd_BIOSOLVEIT.INFINISEE\_FTREES\_SIMILARITY>  (2) 
0.91700000000000004

>  <r_sd_BIOSOLVEIT.LOGP>  (2) 
3.2002000000000002

>  <r_sd_BIOSOLVEIT.MOLECULAR\_WEIGHT>  (2) 
479.47199999999998

>  <r_sd_BIOSOLVEIT.TPSA>  (2) 
64.420000000000002

>  <i_epik_Tot_Q>  (2) 
2

>  <i_epik_Tot_abs_Q>  (2) 
2

>  <i_f3d_flags>  (2) 
0

>  <i_i_glide_confnum>  (2) 
1

>  <i_i_glide_lignum>  (2) 
937

>  <i_i_glide_posenum>  (2) 
10

>  <i_i_glide_rotatable_bonds>  (2) 
10

>  <i_lp_mmshare_version>  (2) 
65135

>  <i_m_ct_format>  (2) 
2

>  <i_m_source_file_index>  (2) 
2428

>  <i_qp_#NandO>  (2) 
5

>  <i_qp_#acid>  (2) 
0

>  <i_qp_#amide>  (2) 
0

>  <i_qp_#amidine>  (2) 
0

>  <i_qp_#amine>  (2) 
3

>  <i_qp_#in34>  (2) 
0

>  <i_qp_#in56>  (2) 
17

>  <i_qp_#metab>  (2) 
7

>  <i_qp_#nonHatm>  (2) 
31

>  <i_qp_#noncon>  (2) 
0

>  <i_qp_#ringatoms>  (2) 
17

>  <i_qp_#rotor>  (2) 
10

>  <i_qp_#rtvFG>  (2) 
0

>  <i_qp_#stars>  (2) 
0

>  <i_qp_CNS>  (2) 
0

>  <i_qp_HumanOralAbsorption>  (2) 
2

>  <i_qp_RuleOfFive>  (2) 
0

>  <i_qp_RuleOfThree>  (2) 
2

>  <i_sd_BIOSOLVEIT.INFINISEE\_RESULT\_RANK>  (2) 
23077

>  <i_sd_version>  (2) 
0

>  <b_lp_Chiralities_Consistent>  (2) 
1

>  <b_sd_chiral_flag>  (2) 
0

>  <canonical_id>  (2) 
ATP-HTVS-F0EA8E73CD83

>  <compound_code>  (2) 
77665

>  <title>  (2) 
rxn512b____EMOL49832880____EMOL44846536____EMOL2873214

>  <variant>  (2) 
77665-1

>  <source_file>  (2) 
运行/运行/ATP-VSW/ATP-VSW-DOCK_HTVS_1-001_lib/ATP-VSW-DOCK_HTVS_1-001_lib

>  <canonical_smiles>  (2) 
C[NH+](C)Cc1cccc(CNc2cc(C(=O)N(CC[NH3+])c3ccc(Cl)cc3)sc2Cl)c1

>  <scaffold>  (2) 
O=C(Nc1ccccc1)c1cc(NCc2ccccc2)cs1

>  <molecular_formula>  (2) 
C23H28Cl2N4OS+2

>  <acquisition_id_v2>  (2) 
ATP-ACQ2-0002

>  <selection_arm_v2>  (2) 
local_structure_bridge

>  <priority_v2>  (2) 
P0

$$$$
ATP-ACQ2-0003
     RDKit          3D

 59 62  0  0  0  0  0  0  0  0999 V2000
  189.5497  189.8687  162.1326 S   0  0  0  0  0  0  0  0  0  0  0  0
  190.9066  189.0836  161.2145 C   0  0  0  0  0  0  0  0  0  0  0  0
  191.0621  187.5960  161.5944 C   0  0  0  0  0  0  0  0  0  0  0  0
  192.2738  187.0688  161.0415 N   0  0  0  0  0  0  0  0  0  0  0  0
  193.4243  186.8857  161.7162 C   0  0  0  0  0  0  0  0  0  0  0  0
  193.5540  187.0811  162.9175 O   0  0  0  0  0  0  0  0  0  0  0  0
  194.6023  186.5192  160.8705 C   0  0  0  0  0  0  0  0  0  0  0  0
  195.6986  187.3990  160.8014 C   0  0  0  0  0  0  0  0  0  0  0  0
  195.7040  188.5871  161.4614 F   0  0  0  0  0  0  0  0  0  0  0  0
  196.8018  187.0710  160.0111 C   0  0  0  0  0  0  0  0  0  0  0  0
  196.8546  185.8501  159.2930 C   0  0  0  0  0  0  0  0  0  0  0  0
  195.7637  184.9675  159.3571 C   0  0  0  0  0  0  0  0  0  0  0  0
  194.6397  185.3129  160.1465 C   0  0  0  0  0  0  0  0  0  0  0  0
  197.9442  188.0306  159.9971 C   0  0  0  0  0  0  0  0  0  0  0  0
  197.8159  189.2095  159.1310 N   0  0  0  0  0  0  0  0  0  0  0  0
  198.9271  190.1482  159.3796 C   0  0  2  0  0  0  0  0  0  0  0  0
  198.8365  191.4194  158.5282 C   0  0  0  0  0  0  0  0  0  0  0  0
  199.0722  191.3645  157.1262 C   0  0  0  0  0  0  0  0  0  0  0  0
  199.2895  190.1655  156.4237 N   0  0  0  0  0  0  0  0  0  0  0  0
  198.6208  189.0069  156.6269 C   0  0  0  0  0  0  0  0  0  0  0  0
  198.9627  187.9879  156.0427 O   0  0  0  0  0  0  0  0  0  0  0  0
  197.4897  188.9463  157.6919 C   0  0  0  0  0  0  0  0  0  0  0  0
  199.1254  192.5367  156.3703 C   0  0  0  0  0  0  0  0  0  0  0  0
  198.8532  193.7857  156.9657 C   0  0  0  0  0  0  0  0  0  0  0  0
  198.5576  193.8504  158.3396 C   0  0  0  0  0  0  0  0  0  0  0  0
  198.5506  192.6801  159.1244 C   0  0  0  0  0  0  0  0  0  0  0  0
  200.3197  189.5016  159.2173 C   0  0  0  0  0  0  0  0  0  0  0  0
  201.4940  190.1960  159.5584 C   0  0  0  0  0  0  0  0  0  0  0  0
  202.7260  189.5686  159.3295 C   0  0  0  0  0  0  0  0  0  0  0  0
  202.8267  188.2632  158.7821 C   0  0  0  0  0  0  0  0  0  0  0  0
  201.6875  187.5635  158.4339 C   0  0  0  0  0  0  0  0  0  0  0  0
  200.4577  188.2055  158.6536 C   0  0  0  0  0  0  0  0  0  0  0  0
  189.4002  191.4146  161.1981 C   0  0  0  0  0  0  0  0  0  0  0  0
  190.7062  189.1781  160.1474 H   0  0  0  0  0  0  0  0  0  0  0  0
  191.8229  189.6361  161.4190 H   0  0  0  0  0  0  0  0  0  0  0  0
  191.0427  187.4890  162.6807 H   0  0  0  0  0  0  0  0  0  0  0  0
  190.2048  187.0384  161.2197 H   0  0  0  0  0  0  0  0  0  0  0  0
  192.2661  186.7546  160.0514 H   0  0  0  0  0  0  0  0  0  0  0  0
  197.7179  185.5874  158.6937 H   0  0  0  0  0  0  0  0  0  0  0  0
  195.7882  184.0369  158.8110 H   0  0  0  0  0  0  0  0  0  0  0  0
  193.8129  184.6318  160.1804 H   0  0  0  0  0  0  0  0  0  0  0  0
  198.2566  188.3173  160.9892 H   0  0  0  0  0  0  0  0  0  0  0  0
  198.6997  187.2987  159.8067 H   0  0  0  0  0  0  0  0  0  0  0  0
  198.8689  190.4671  160.4312 H   0  0  0  0  0  0  0  0  0  0  0  0
  200.0518  190.1219  155.7780 H   0  0  0  0  0  0  0  0  0  0  0  0
  197.0379  187.9546  157.6102 H   0  0  0  0  0  0  0  0  0  0  0  0
  196.7314  189.6463  157.3506 H   0  0  0  0  0  0  0  0  0  0  0  0
  199.3426  192.4813  155.3120 H   0  0  0  0  0  0  0  0  0  0  0  0
  198.8676  194.6770  156.3592 H   0  0  0  0  0  0  0  0  0  0  0  0
  198.3502  194.8133  158.7879 H   0  0  0  0  0  0  0  0  0  0  0  0
  198.3442  192.7621  160.1825 H   0  0  0  0  0  0  0  0  0  0  0  0
  201.4258  191.1933  159.9616 H   0  0  0  0  0  0  0  0  0  0  0  0
  203.6430  190.0910  159.5817 H   0  0  0  0  0  0  0  0  0  0  0  0
  203.7646  187.7662  158.6087 H   0  0  0  0  0  0  0  0  0  0  0  0
  201.6305  186.5882  158.0019 H   0  0  0  0  0  0  0  0  0  0  0  0
  199.6864  187.6121  158.2680 H   0  0  0  0  0  0  0  0  0  0  0  0
  188.6105  192.0347  161.6232 H   0  0  0  0  0  0  0  0  0  0  0  0
  189.1513  191.2060  160.1573 H   0  0  0  0  0  0  0  0  0  0  0  0
  190.3366  191.9715  161.2281 H   0  0  0  0  0  0  0  0  0  0  0  0
  1  2  1  0
  1 33  1  0
  2  3  1  0
  2 34  1  0
  2 35  1  0
  3  4  1  0
  3 36  1  0
  3 37  1  0
  4  5  1  0
  4 38  1  0
  5  6  2  0
  5  7  1  0
  7  8  2  0
  7 13  1  0
  8  9  1  0
  8 10  1  0
 10 11  2  0
 10 14  1  0
 11 12  1  0
 11 39  1  0
 12 13  2  0
 12 40  1  0
 13 41  1  0
 14 15  1  0
 14 42  1  0
 14 43  1  0
 15 16  1  0
 15 22  1  0
 16 17  1  0
 16 27  1  0
 16 44  1  1
 17 18  1  0
 17 26  2  0
 18 19  1  0
 18 23  2  0
 19 20  1  0
 19 45  1  0
 20 21  2  0
 20 22  1  0
 22 46  1  0
 22 47  1  0
 23 24  1  0
 23 48  1  0
 24 25  2  0
 24 49  1  0
 25 26  1  0
 25 50  1  0
 26 51  1  0
 27 28  2  0
 27 32  1  0
 28 29  1  0
 28 52  1  0
 29 30  2  0
 29 53  1  0
 30 31  1  0
 30 54  1  0
 31 32  2  0
 31 55  1  0
 32 56  1  0
 33 57  1  0
 33 58  1  0
 33 59  1  0
M  END
>  <s_epik_cmdline>  (3) 
J2VwaWtfcHl0aG9uJywgJy1waCcsICc3LjAwMDAwMCcsICctcGh0JywgJzIuMDAwMDAwJywgJy1tcycsICcxNicsICctdG4nLCAnOCcsICctbWEnLCAnMjAwJywgJy1pbWFlJywgJzxpbmZpbGUubWFlPicsICctb21hZScsICc8b3V0ZmlsZS5tYWU+Jw==

>  <s_epik_input>  (3) 
W0NIM11TW0NIMl1bQ0gyXVtOSF1DKD1PKWMxYyhGKWMoW2NIXVtjSF1bY0hdMSlbQ0gyXU4oW0NASF0yYzNbY0hdW2NIXVtjSF1bY0hdW2NIXTMpW0NIMl1DKD1PKVtOSF1jKGMyNClbY0hdW2NIXVtjSF1bY0hdNA==

>  <s_i_glide_gridfile>  (3) 
ATP-Grid

>  <s_lp_Force_Field>  (3) 
OPLS_2005

>  <s_lp_Variant>  (3) 
rxn512b____EMOL525124____EMOL49775718____EMOL6185419-2

>  <s_lp_label>  (3) 
2909_sdstereoexpander_3_neutralizer_1_epik_1_stereoizer_1

>  <s_m_source_file>  (3) 
ATP-VSW-LIGPREP-003-in.maegz

>  <s_sd_BIOSOLVEIT.INFINISEE\_QUERY\_NAME>  (3) 
Ref-Lig

>  <s_sd_BIOSOLVEIT.INFINISEE\_QUERY\_SMILES>  (3) 
S(c1nc2c(cc1C[NH2+]Cc3ccc(cc3)C[NH+](C)C)cccc2)Cc4ccccc4

>  <s_sd_BIOSOLVEIT.INFINISEE\_REACTION\_NAME>  (3) 
rxn512b

>  <s_sd_BIOSOLVEIT.INFINISEE\_REAGENT1\_NAME>  (3) 
EMOL525124

>  <s_sd_BIOSOLVEIT.INFINISEE\_REAGENT1\_SMILES>  (3) 
S(CCN)C

>  <s_sd_BIOSOLVEIT.INFINISEE\_REAGENT2\_NAME>  (3) 
EMOL49775718

>  <s_sd_BIOSOLVEIT.INFINISEE\_REAGENT2\_SMILES>  (3) 
BrCc1c(F)c(ccc1)C(=O)O

>  <s_sd_BIOSOLVEIT.INFINISEE\_REAGENT3\_NAME>  (3) 
EMOL6185419

>  <s_sd_BIOSOLVEIT.INFINISEE\_REAGENT3\_SMILES>  (3) 
O=C1Nc2c(cccc2)C(NC1)c3ccccc3

>  <s_sd_BIOSOLVEIT.INFINISEE\_SPACE>  (3) 
eXplore_7tr_2022-12

>  <s_vsw_compound_code>  (3) 
93059

>  <s_vsw_variant>  (3) 
93059-2

>  <r_epik_Charging_Adjusted_Penalty>  (3) 
0.0087634984339075902

>  <r_epik_Ionization_Penalty>  (3) 
0.0088000000000000005

>  <r_epik_Ionization_Penalty_Charging>  (3) 
0

>  <r_epik_Ionization_Penalty_Neutral>  (3) 
0.0088000000000000005

>  <r_epik_State_Penalty>  (3) 
0.0088000000000000005

>  <r_i_docking_score>  (3) 
-5.4539142314687696

>  <r_i_glide_ecoul>  (3) 
-4.5425910949706996

>  <r_i_glide_eff_state_penalty>  (3) 
0.0088000000000000005

>  <r_i_glide_einternal>  (3) 
6.7679171562194798

>  <r_i_glide_emodel>  (3) 
-50.479238826300701

>  <r_i_glide_energy>  (3) 
-40.000328063964801

>  <r_i_glide_erotb>  (3) 
0.65645422405475495

>  <r_i_glide_esite>  (3) 
-0.0027508944810086199

>  <r_i_glide_evdw>  (3) 
-35.457736968994098

>  <r_i_glide_gscore>  (3) 
-5.4627142314687704

>  <r_i_glide_hbond>  (3) 
-0.56532359962812495

>  <r_i_glide_ligand_efficiency>  (3) 
-0.165270128226326

>  <r_i_glide_ligand_efficiency_ln>  (3) 
-1.2129222862220701

>  <r_i_glide_ligand_efficiency_sa>  (3) 
-0.53010960939091001

>  <r_i_glide_lipo>  (3) 
-2.5252718056575998

>  <r_i_glide_metal>  (3) 
-0

>  <r_i_glide_rewards>  (3) 
-0.57154664306148395

>  <r_lp_Energy>  (3) 
56.415376000000002

>  <r_qp_ACxDN^.5/SA>  (3) 
0.0135511

>  <r_qp_CIQPlogS>  (3) 
-5.4889999999999999

>  <r_qp_EA(eV)>  (3) 
0.73399999999999999

>  <r_qp_FISA>  (3) 
104.098

>  <r_qp_FOSA>  (3) 
207.59100000000001

>  <r_qp_IP(eV)>  (3) 
8.9640000000000004

>  <r_qp_Jm>  (3) 
0.000286819323847685

>  <r_qp_PISA>  (3) 
411.95400000000001

>  <r_qp_PSA>  (3) 
76.534999999999997

>  <r_qp_PercentHumanOralAbsorption>  (3) 
95.855999999999995

>  <r_qp_QPPCaco>  (3) 
254.47

>  <r_qp_QPPMDCK>  (3) 
262.64499999999998

>  <r_qp_QPlogBB>  (3) 
-0.38600000000000001

>  <r_qp_QPlogHERG>  (3) 
-7.7300000000000004

>  <r_qp_QPlogKhsa>  (3) 
0.71799999999999997

>  <r_qp_QPlogKp>  (3) 
-3.4729999999999999

>  <r_qp_QPlogPC16>  (3) 
15.882

>  <r_qp_QPlogPo/w>  (3) 
4.4160000000000004

>  <r_qp_QPlogPoct>  (3) 
24.428999999999998

>  <r_qp_QPlogPw>  (3) 
14.127000000000001

>  <r_qp_QPlogS>  (3) 
-5.7350000000000003

>  <r_qp_QPpolrz>  (3) 
51.045999999999999

>  <r_qp_SASA>  (3) 
782.71100000000001

>  <r_qp_SAamideO>  (3) 
0

>  <r_qp_SAfluorine>  (3) 
16.382999999999999

>  <r_qp_WPSA>  (3) 
59.067999999999998

>  <r_qp_accptHB>  (3) 
7.5

>  <r_qp_dip^2/V>  (3) 
0.0103254

>  <r_qp_dipole>  (3) 
3.839

>  <r_qp_donorHB>  (3) 
2

>  <r_qp_glob>  (3) 
0.78324380000000005

>  <r_qp_mol_MW>  (3) 
463.56900000000002

>  <r_qp_volume>  (3) 
1427.251

>  <r_sd_BIOSOLVEIT.INFINISEE\_FTREES\_SIMILARITY>  (3) 
0.90400000000000003

>  <r_sd_BIOSOLVEIT.LOGP>  (3) 
3.0451000000000001

>  <r_sd_BIOSOLVEIT.MOLECULAR\_WEIGHT>  (3) 
464.58100000000002

>  <r_sd_BIOSOLVEIT.TPSA>  (3) 
62.640000000000001

>  <i_epik_Tot_Q>  (3) 
0

>  <i_epik_Tot_abs_Q>  (3) 
0

>  <i_f3d_flags>  (3) 
0

>  <i_i_glide_confnum>  (3) 
2

>  <i_i_glide_lignum>  (3) 
1427

>  <i_i_glide_posenum>  (3) 
9

>  <i_i_glide_rotatable_bonds>  (3) 
8

>  <i_lp_mmshare_version>  (3) 
65135

>  <i_m_ct_format>  (3) 
2

>  <i_m_source_file_index>  (3) 
2909

>  <i_qp_#NandO>  (3) 
5

>  <i_qp_#acid>  (3) 
0

>  <i_qp_#amide>  (3) 
0

>  <i_qp_#amidine>  (3) 
0

>  <i_qp_#amine>  (3) 
1

>  <i_qp_#in34>  (3) 
0

>  <i_qp_#in56>  (3) 
18

>  <i_qp_#metab>  (3) 
7

>  <i_qp_#nonHatm>  (3) 
33

>  <i_qp_#noncon>  (3) 
2

>  <i_qp_#ringatoms>  (3) 
23

>  <i_qp_#rotor>  (3) 
6

>  <i_qp_#rtvFG>  (3) 
0

>  <i_qp_#stars>  (3) 
0

>  <i_qp_CNS>  (3) 
1

>  <i_qp_HumanOralAbsorption>  (3) 
3

>  <i_qp_RuleOfFive>  (3) 
0

>  <i_qp_RuleOfThree>  (3) 
2

>  <i_sd_BIOSOLVEIT.INFINISEE\_RESULT\_RANK>  (3) 
75856

>  <i_sd_version>  (3) 
0

>  <b_lp_Chiralities_Consistent>  (3) 
1

>  <b_sd_chiral_flag>  (3) 
0

>  <canonical_id>  (3) 
ATP-HTVS-FDB0F1EC6F74

>  <compound_code>  (3) 
93059

>  <title>  (3) 
rxn512b____EMOL525124____EMOL49775718____EMOL6185419

>  <variant>  (3) 
93059-2

>  <source_file>  (3) 
运行/运行/ATP-VSW/ATP-VSW-DOCK_HTVS_1-003_lib/ATP-VSW-DOCK_HTVS_1-003_lib.mae

>  <canonical_smiles>  (3) 
CSCCNC(=O)c1cccc(CN2CC(=O)Nc3ccccc3[C@@H]2c2ccccc2)c1F

>  <scaffold>  (3) 
O=C1CN(Cc2ccccc2)C(c2ccccc2)c2ccccc2N1

>  <molecular_formula>  (3) 
C26H26FN3O2S

>  <acquisition_id_v2>  (3) 
ATP-ACQ2-0003

>  <selection_arm_v2>  (3) 
scaffold_score_exploration

>  <priority_v2>  (3) 
P0

$$$$
ATP-ACQ2-0004
     RDKit          3D

 56 59  0  0  0  0  0  0  0  0999 V2000
  197.5163  184.2612  152.2366 F   0  0  0  0  0  0  0  0  0  0  0  0
  197.1323  182.9620  152.2910 C   0  0  0  0  0  0  0  0  0  0  0  0
  197.0932  182.3465  153.5280 C   0  0  0  0  0  0  0  0  0  0  0  0
  196.7696  180.9771  153.6503 C   0  0  0  0  0  0  0  0  0  0  0  0
  196.3673  180.2526  152.4800 C   0  0  0  0  0  0  0  0  0  0  0  0
  196.3457  180.9146  151.2259 C   0  0  0  0  0  0  0  0  0  0  0  0
  196.7447  182.2699  151.1190 C   0  0  0  0  0  0  0  0  0  0  0  0
  196.7892  180.2449  155.0028 C   0  0  2  0  0  0  0  0  0  0  0  0
  196.5059  181.1537  156.1458 N   0  0  0  0  0  0  0  0  0  0  0  0
  197.6575  182.0033  156.6197 C   0  0  0  0  0  0  0  0  0  0  0  0
  197.0196  183.0428  157.4542 C   0  0  0  0  0  0  0  0  0  0  0  0
  196.5373  183.9325  158.1423 C   0  0  0  0  0  0  0  0  0  0  0  0
  195.9867  184.9194  159.0438 C   0  0  0  0  0  0  0  0  0  0  0  0
  196.6014  186.1595  159.3249 C   0  0  0  0  0  0  0  0  0  0  0  0
  195.9671  187.0320  160.2404 C   0  0  0  0  0  0  0  0  0  0  0  0
  194.7499  186.6210  160.8386 C   0  0  0  0  0  0  0  0  0  0  0  0
  194.1560  185.4541  160.4993 N   0  0  0  0  0  0  0  0  0  0  0  0
  194.7706  184.6073  159.6634 C   0  0  0  0  0  0  0  0  0  0  0  0
  194.1248  187.5258  161.7355 N   0  0  0  0  0  0  0  0  0  0  0  0
  193.1047  187.3380  162.5932 C   0  0  0  0  0  0  0  0  0  0  0  0
  192.6712  186.2343  162.9326 O   0  0  0  0  0  0  0  0  0  0  0  0
  192.5957  188.5846  163.2686 C   0  0  0  0  0  0  0  0  0  0  0  0
  191.9619  188.4973  164.5320 C   0  0  0  0  0  0  0  0  0  0  0  0
  191.4535  189.6536  165.1594 C   0  0  0  0  0  0  0  0  0  0  0  0
  190.8444  189.5689  166.3779 O   0  0  0  0  0  0  0  0  0  0  0  0
  191.5867  190.9067  164.5310 C   0  0  0  0  0  0  0  0  0  0  0  0
  192.2246  191.0067  163.2819 C   0  0  0  0  0  0  0  0  0  0  0  0
  192.7374  189.8564  162.6582 C   0  0  0  0  0  0  0  0  0  0  0  0
  196.5581  188.2864  160.5163 C   0  0  0  0  0  0  0  0  0  0  0  0
  197.7732  188.6506  159.9146 C   0  0  0  0  0  0  0  0  0  0  0  0
  198.4126  187.7731  159.0249 C   0  0  0  0  0  0  0  0  0  0  0  0
  197.8297  186.5311  158.7290 C   0  0  0  0  0  0  0  0  0  0  0  0
  198.0902  179.4514  155.2427 C   0  0  0  0  0  0  0  0  0  0  0  0
  195.6765  181.7110  155.8938 H   0  0  0  0  0  0  0  0  0  0  0  0
  197.2854  183.0497  154.2859 H   0  0  0  0  0  0  0  0  0  0  0  0
  196.0335  179.1938  152.5385 H   0  0  0  0  0  0  0  0  0  0  0  0
  196.0279  180.4078  150.3413 H   0  0  0  0  0  0  0  0  0  0  0  0
  196.7461  182.8295  150.1638 H   0  0  0  0  0  0  0  0  0  0  0  0
  195.9808  179.5043  155.0278 H   0  0  0  0  0  0  0  0  0  0  0  0
  198.3786  181.4049  157.2308 H   0  0  0  0  0  0  0  0  0  0  0  0
  198.2904  182.4956  155.9146 H   0  0  0  0  0  0  0  0  0  0  0  0
  194.2616  183.6676  159.4858 H   0  0  0  0  0  0  0  0  0  0  0  0
  194.4569  188.4777  161.6664 H   0  0  0  0  0  0  0  0  0  0  0  0
  191.8484  187.5356  165.0200 H   0  0  0  0  0  0  0  0  0  0  0  0
  190.8671  188.6928  166.7318 H   0  0  0  0  0  0  0  0  0  0  0  0
  191.2015  191.7984  165.0010 H   0  0  0  0  0  0  0  0  0  0  0  0
  192.3235  191.9606  162.7891 H   0  0  0  0  0  0  0  0  0  0  0  0
  193.1934  189.9537  161.6862 H   0  0  0  0  0  0  0  0  0  0  0  0
  196.1194  188.9879  161.2065 H   0  0  0  0  0  0  0  0  0  0  0  0
  198.2292  189.5964  160.1640 H   0  0  0  0  0  0  0  0  0  0  0  0
  199.3528  188.0555  158.5772 H   0  0  0  0  0  0  0  0  0  0  0  0
  198.3455  185.8766  158.0421 H   0  0  0  0  0  0  0  0  0  0  0  0
  198.2766  178.7313  154.4459 H   0  0  0  0  0  0  0  0  0  0  0  0
  198.0500  178.8917  156.1794 H   0  0  0  0  0  0  0  0  0  0  0  0
  198.9583  180.1119  155.2872 H   0  0  0  0  0  0  0  0  0  0  0  0
  196.1979  180.5345  156.9211 H   0  0  0  0  0  0  0  0  0  0  0  0
  1  2  1  0
  2  3  2  0
  2  7  1  0
  3  4  1  0
  3 35  1  0
  4  5  2  0
  4  8  1  0
  5  6  1  0
  5 36  1  0
  6  7  2  0
  6 37  1  0
  7 38  1  0
  8  9  1  0
  8 33  1  0
  8 39  1  6
  9 10  1  0
  9 34  1  0
  9 56  1  0
 10 11  1  0
 10 40  1  0
 10 41  1  0
 11 12  3  0
 12 13  1  0
 13 14  2  0
 13 18  1  0
 14 15  1  0
 14 32  1  0
 15 16  2  0
 15 29  1  0
 16 17  1  0
 16 19  1  0
 17 18  2  0
 18 42  1  0
 19 20  1  0
 19 43  1  0
 20 21  2  0
 20 22  1  0
 22 23  1  0
 22 28  2  0
 23 24  2  0
 23 44  1  0
 24 25  1  0
 24 26  1  0
 25 45  1  0
 26 27  2  0
 26 46  1  0
 27 28  1  0
 27 47  1  0
 28 48  1  0
 29 30  2  0
 29 49  1  0
 30 31  1  0
 30 50  1  0
 31 32  2  0
 31 51  1  0
 32 52  1  0
 33 53  1  0
 33 54  1  0
 33 55  1  0
M  CHG  1   9   1
M  END
>  <s_epik_cmdline>  (4) 
J2VwaWtfcHl0aG9uJywgJy1waCcsICc3LjAwMDAwMCcsICctcGh0JywgJzIuMDAwMDAwJywgJy1tcycsICcxNicsICctdG4nLCAnOCcsICctbWEnLCAnMjAwJywgJy1pbWFlJywgJzxpbmZpbGUubWFlPicsICctb21hZScsICc8b3V0ZmlsZS5tYWU+Jw==

>  <s_epik_input>  (4) 
RmMxW2NIXWMoW2NIXVtjSF1bY0hdMSlbQ0BASF0oW0NIM10pW05IXVtDSDJdQyNDYzJbY0hdbmMoYyhjMjMpW2NIXVtjSF1bY0hdW2NIXTMpW05IXUMoPU8pYzRbY0hdYyhbT0hdKVtjSF1bY0hdW2NIXTQ=

>  <s_i_glide_gridfile>  (4) 
ATP-Grid

>  <s_lp_Force_Field>  (4) 
OPLS_2005

>  <s_lp_Variant>  (4) 
rxn503b____EMOL519605____EMOL7515103____EMOL317509042-3

>  <s_lp_label>  (4) 
2618_sdstereoexpander_1_neutralizer_1_epik_2_stereoizer_1

>  <s_m_source_file>  (4) 
ATP-VSW-LIGPREP-003-in.maegz

>  <s_sd_BIOSOLVEIT.INFINISEE\_QUERY\_NAME>  (4) 
Ref-Lig

>  <s_sd_BIOSOLVEIT.INFINISEE\_QUERY\_SMILES>  (4) 
S(c1nc2c(cc1C[NH2+]Cc3ccc(cc3)C[NH+](C)C)cccc2)Cc4ccccc4

>  <s_sd_BIOSOLVEIT.INFINISEE\_REACTION\_NAME>  (4) 
rxn503b

>  <s_sd_BIOSOLVEIT.INFINISEE\_REAGENT1\_NAME>  (4) 
EMOL519605

>  <s_sd_BIOSOLVEIT.INFINISEE\_REAGENT1\_SMILES>  (4) 
O=C(O)c1cc(O)ccc1

>  <s_sd_BIOSOLVEIT.INFINISEE\_REAGENT2\_NAME>  (4) 
EMOL7515103

>  <s_sd_BIOSOLVEIT.INFINISEE\_REAGENT2\_SMILES>  (4) 
Brc1c2c(c(nc1)N)cccc2

>  <s_sd_BIOSOLVEIT.INFINISEE\_REAGENT3\_NAME>  (4) 
EMOL317509042

>  <s_sd_BIOSOLVEIT.INFINISEE\_REAGENT3\_SMILES>  (4) 
Fc1cc(ccc1)C(NCC#C)C

>  <s_sd_BIOSOLVEIT.INFINISEE\_SPACE>  (4) 
eXplore_7tr_2022-12

>  <s_vsw_compound_code>  (4) 
83747

>  <s_vsw_variant>  (4) 
83747-3

>  <r_epik_Charging_Adjusted_Penalty>  (4) 
1.26014688583507

>  <r_epik_Ionization_Penalty>  (4) 
0.63260000000000005

>  <r_epik_Ionization_Penalty_Charging>  (4) 
0.62760000000000005

>  <r_epik_Ionization_Penalty_Neutral>  (4) 
0.0050000000000000001

>  <r_epik_State_Penalty>  (4) 
0.63260000000000005

>  <r_i_docking_score>  (4) 
-6.8080311750360698

>  <r_i_glide_ecoul>  (4) 
-12.7041931152344

>  <r_i_glide_eff_state_penalty>  (4) 
0.63260000000000005

>  <r_i_glide_einternal>  (4) 
6.27807664871216

>  <r_i_glide_emodel>  (4) 
-92.053093936602494

>  <r_i_glide_energy>  (4) 
-59.172935485839801

>  <r_i_glide_erotb>  (4) 
0.72034826401853402

>  <r_i_glide_esite>  (4) 
-0.090740604689311499

>  <r_i_glide_evdw>  (4) 
-46.468742370605497

>  <r_i_glide_gscore>  (4) 
-7.4406311750360699

>  <r_i_glide_hbond>  (4) 
-0.54026008402495995

>  <r_i_glide_ligand_efficiency>  (4) 
-0.20630397500109299

>  <r_i_glide_ligand_efficiency_ln>  (4) 
-1.5140708832291401

>  <r_i_glide_ligand_efficiency_sa>  (4) 
-0.66172708145936299

>  <r_i_glide_lipo>  (4) 
-2.4326195912099302

>  <r_i_glide_metal>  (4) 
-0

>  <r_i_glide_rewards>  (4) 
-0.86829307331497596

>  <r_lp_Energy>  (4) 
24.252707999999998

>  <r_lp_tautomer_probability>  (4) 
0.999999999997365

>  <r_qp_ACxDN^.5/SA>  (4) 
0.0121023

>  <r_qp_CIQPlogS>  (4) 
-5.9480000000000004

>  <r_qp_EA(eV)>  (4) 
1.1990000000000001

>  <r_qp_FISA>  (4) 
128.16399999999999

>  <r_qp_FOSA>  (4) 
128.63499999999999

>  <r_qp_IP(eV)>  (4) 
8.3940000000000001

>  <r_qp_Jm>  (4) 
6.4133655119297004e-05

>  <r_qp_PISA>  (4) 
519.16499999999996

>  <r_qp_PSA>  (4) 
80.298000000000002

>  <r_qp_PercentHumanOralAbsorption>  (4) 
94.281999999999996

>  <r_qp_QPPCaco>  (4) 
150.459

>  <r_qp_QPPMDCK>  (4) 
127.748

>  <r_qp_QPlogBB>  (4) 
-0.93799999999999994

>  <r_qp_QPlogHERG>  (4) 
-8.8369999999999997

>  <r_qp_QPlogKhsa>  (4) 
0.86599999999999999

>  <r_qp_QPlogKp>  (4) 
-3.347

>  <r_qp_QPlogPC16>  (4) 
16.818000000000001

>  <r_qp_QPlogPo/w>  (4) 
4.8440000000000003

>  <r_qp_QPlogPoct>  (4) 
25.765000000000001

>  <r_qp_QPlogPw>  (4) 
14.412000000000001

>  <r_qp_QPlogS>  (4) 
-6.4889999999999999

>  <r_qp_QPpolrz>  (4) 
50.957000000000001

>  <r_qp_SASA>  (4) 
822.923

>  <r_qp_SAamideO>  (4) 
0

>  <r_qp_SAfluorine>  (4) 
46.957999999999998

>  <r_qp_WPSA>  (4) 
46.957999999999998

>  <r_qp_accptHB>  (4) 
5.75

>  <r_qp_dip^2/V>  (4) 
0.074619900000000003

>  <r_qp_dipole>  (4) 
10.335000000000001

>  <r_qp_donorHB>  (4) 
3

>  <r_qp_glob>  (4) 
0.74645799999999995

>  <r_qp_mol_MW>  (4) 
439.488

>  <r_qp_volume>  (4) 
1431.5260000000001

>  <r_sd_BIOSOLVEIT.INFINISEE\_FTREES\_SIMILARITY>  (4) 
0.91100000000000003

>  <r_sd_BIOSOLVEIT.LOGP>  (4) 
4.0079000000000002

>  <r_sd_BIOSOLVEIT.MOLECULAR\_WEIGHT>  (4) 
440.49599999999998

>  <r_sd_BIOSOLVEIT.TPSA>  (4) 
78.829999999999998

>  <i_epik_Tot_Q>  (4) 
1

>  <i_epik_Tot_abs_Q>  (4) 
1

>  <i_f3d_flags>  (4) 
0

>  <i_i_glide_confnum>  (4) 
2

>  <i_i_glide_lignum>  (4) 
1192

>  <i_i_glide_posenum>  (4) 
10

>  <i_i_glide_rotatable_bonds>  (4) 
9

>  <i_lp_mmshare_version>  (4) 
65135

>  <i_m_ct_format>  (4) 
2

>  <i_m_source_file_index>  (4) 
2618

>  <i_qp_#NandO>  (4) 
5

>  <i_qp_#acid>  (4) 
0

>  <i_qp_#amide>  (4) 
0

>  <i_qp_#amidine>  (4) 
0

>  <i_qp_#amine>  (4) 
1

>  <i_qp_#in34>  (4) 
0

>  <i_qp_#in56>  (4) 
22

>  <i_qp_#metab>  (4) 
6

>  <i_qp_#nonHatm>  (4) 
33

>  <i_qp_#noncon>  (4) 
0

>  <i_qp_#ringatoms>  (4) 
22

>  <i_qp_#rotor>  (4) 
8

>  <i_qp_#rtvFG>  (4) 
0

>  <i_qp_#stars>  (4) 
2

>  <i_qp_CNS>  (4) 
-1

>  <i_qp_HumanOralAbsorption>  (4) 
1

>  <i_qp_RuleOfFive>  (4) 
0

>  <i_qp_RuleOfThree>  (4) 
1

>  <i_sd_BIOSOLVEIT.INFINISEE\_RESULT\_RANK>  (4) 
43229

>  <i_sd_version>  (4) 
0

>  <b_lp_Chiralities_Consistent>  (4) 
1

>  <b_sd_chiral_flag>  (4) 
0

>  <canonical_id>  (4) 
ATP-HTVS-780990BE0E68

>  <compound_code>  (4) 
83747

>  <title>  (4) 
rxn503b____EMOL519605____EMOL7515103____EMOL317509042

>  <variant>  (4) 
83747-3

>  <source_file>  (4) 
运行/运行/ATP-VSW/ATP-VSW-DOCK_HTVS_1-003_lib/ATP-VSW-DOCK_HTVS_1-003_lib.mae

>  <canonical_smiles>  (4) 
C[C@@H]([NH2+]CC#Cc1cnc(NC(=O)c2cccc(O)c2)c2ccccc12)c1cccc(F)c1

>  <scaffold>  (4) 
O=C(Nc1ncc(C#CC[NH2+]Cc2ccccc2)c2ccccc12)c1ccccc1

>  <molecular_formula>  (4) 
C27H23FN3O2+

>  <acquisition_id_v2>  (4) 
ATP-ACQ2-0004

>  <selection_arm_v2>  (4) 
exploitation

>  <priority_v2>  (4) 
P0

$$$$
ATP-ACQ2-0005
     RDKit          3D

 59 61  0  0  0  0  0  0  0  0999 V2000
  197.8157  183.1593  153.7840 S   0  0  0  0  0  0  0  0  0  0  0  0
  197.0895  182.1996  155.0495 C   0  0  0  0  0  0  0  0  0  0  0  0
  196.9238  182.8604  156.3701 C   0  0  0  0  0  0  0  0  0  0  0  0
  197.3289  184.0110  156.5498 O   0  0  0  0  0  0  0  0  0  0  0  0
  196.2791  182.1463  157.3144 N   0  0  0  0  0  0  0  0  0  0  0  0
  195.7212  182.6256  158.5889 C   0  0  1  0  0  0  0  0  0  0  0  0
  196.3219  183.9588  159.0330 C   0  0  0  0  0  0  0  0  0  0  0  0
  197.6707  184.0174  159.4201 C   0  0  0  0  0  0  0  0  0  0  0  0
  198.2691  185.2533  159.7280 C   0  0  0  0  0  0  0  0  0  0  0  0
  197.5069  186.4411  159.7014 C   0  0  0  0  0  0  0  0  0  0  0  0
  196.1505  186.3903  159.3405 C   0  0  0  0  0  0  0  0  0  0  0  0
  195.5580  185.1546  159.0123 C   0  0  0  0  0  0  0  0  0  0  0  0
  194.1774  182.6577  158.5220 C   0  0  0  0  0  0  0  0  0  0  0  0
  193.5034  181.3072  158.2517 C   0  0  0  0  0  0  0  0  0  0  0  0
  196.7519  180.9471  154.5920 C   0  0  0  0  0  0  0  0  0  0  0  0
  197.1093  180.7518  153.2231 C   0  0  0  0  0  0  0  0  0  0  0  0
  196.8956  179.5156  152.5977 N   0  0  0  0  0  0  0  0  0  0  0  0
  197.9819  178.8832  151.8552 C   0  0  0  0  0  0  0  0  0  0  0  0
  199.3337  178.7799  152.5646 C   0  0  0  0  0  0  0  0  0  0  0  0
  199.4352  178.7791  153.9749 C   0  0  0  0  0  0  0  0  0  0  0  0
  200.6963  178.7357  154.6050 C   0  0  0  0  0  0  0  0  0  0  0  0
  201.8665  178.6438  153.8215 C   0  0  0  0  0  0  0  0  0  0  0  0
  201.7698  178.5992  152.4176 C   0  0  0  0  0  0  0  0  0  0  0  0
  200.5092  178.6732  151.7931 C   0  0  0  0  0  0  0  0  0  0  0  0
  200.7862  178.7893  156.1180 C   0  0  0  0  0  0  0  0  0  0  0  0
  200.4671  177.4857  156.7618 N   0  0  0  0  0  0  0  0  0  0  0  0
  201.2413  176.3455  156.2194 C   0  0  0  0  0  0  0  0  0  0  0  0
  200.5996  177.5655  158.2268 C   0  0  0  0  0  0  0  0  0  0  0  0
  197.7048  181.8479  152.6546 C   0  0  0  0  0  0  0  0  0  0  0  0
  196.0101  181.2032  157.0834 H   0  0  0  0  0  0  0  0  0  0  0  0
  196.0005  181.8757  159.3328 H   0  0  0  0  0  0  0  0  0  0  0  0
  198.2655  183.1124  159.4264 H   0  0  0  0  0  0  0  0  0  0  0  0
  199.3211  185.2981  159.9560 H   0  0  0  0  0  0  0  0  0  0  0  0
  197.9699  187.3905  159.9143 H   0  0  0  0  0  0  0  0  0  0  0  0
  195.5671  187.2961  159.2620 H   0  0  0  0  0  0  0  0  0  0  0  0
  194.5297  185.1749  158.6880 H   0  0  0  0  0  0  0  0  0  0  0  0
  193.7903  183.0536  159.4535 H   0  0  0  0  0  0  0  0  0  0  0  0
  193.8433  183.3561  157.7627 H   0  0  0  0  0  0  0  0  0  0  0  0
  192.4235  181.4311  158.1307 H   0  0  0  0  0  0  0  0  0  0  0  0
  193.6791  180.6213  159.0794 H   0  0  0  0  0  0  0  0  0  0  0  0
  193.8693  180.8469  157.3368 H   0  0  0  0  0  0  0  0  0  0  0  0
  196.2842  180.1827  155.1957 H   0  0  0  0  0  0  0  0  0  0  0  0
  196.3136  178.8763  153.1182 H   0  0  0  0  0  0  0  0  0  0  0  0
  197.6580  177.8785  151.5871 H   0  0  0  0  0  0  0  0  0  0  0  0
  198.1176  179.4331  150.9230 H   0  0  0  0  0  0  0  0  0  0  0  0
  198.5491  178.8245  154.5893 H   0  0  0  0  0  0  0  0  0  0  0  0
  202.8384  178.5987  154.2922 H   0  0  0  0  0  0  0  0  0  0  0  0
  202.6660  178.5170  151.8197 H   0  0  0  0  0  0  0  0  0  0  0  0
  200.4505  178.6495  150.7148 H   0  0  0  0  0  0  0  0  0  0  0  0
  201.7821  179.1203  156.4119 H   0  0  0  0  0  0  0  0  0  0  0  0
  200.0883  179.5468  156.4797 H   0  0  0  0  0  0  0  0  0  0  0  0
  202.3122  176.5160  156.3317 H   0  0  0  0  0  0  0  0  0  0  0  0
  201.0244  176.1810  155.1636 H   0  0  0  0  0  0  0  0  0  0  0  0
  200.9875  175.4254  156.7462 H   0  0  0  0  0  0  0  0  0  0  0  0
  201.6198  177.8003  158.5299 H   0  0  0  0  0  0  0  0  0  0  0  0
  200.2971  176.6366  158.7140 H   0  0  0  0  0  0  0  0  0  0  0  0
  199.9485  178.3586  158.5768 H   0  0  0  0  0  0  0  0  0  0  0  0
  198.0923  181.9790  151.6521 H   0  0  0  0  0  0  0  0  0  0  0  0
  199.4875  177.3129  156.5892 H   0  0  0  0  0  0  0  0  0  0  0  0
  1  2  1  0
  1 29  1  0
  2  3  1  0
  2 15  2  0
  3  4  2  0
  3  5  1  0
  5  6  1  0
  5 30  1  0
  6  7  1  0
  6 13  1  0
  6 31  1  1
  7  8  2  0
  7 12  1  0
  8  9  1  0
  8 32  1  0
  9 10  2  0
  9 33  1  0
 10 11  1  0
 10 34  1  0
 11 12  2  0
 11 35  1  0
 12 36  1  0
 13 14  1  0
 13 37  1  0
 13 38  1  0
 14 39  1  0
 14 40  1  0
 14 41  1  0
 15 16  1  0
 15 42  1  0
 16 17  1  0
 16 29  2  0
 17 18  1  0
 17 43  1  0
 18 19  1  0
 18 44  1  0
 18 45  1  0
 19 20  2  0
 19 24  1  0
 20 21  1  0
 20 46  1  0
 21 22  2  0
 21 25  1  0
 22 23  1  0
 22 47  1  0
 23 24  2  0
 23 48  1  0
 24 49  1  0
 25 26  1  0
 25 50  1  0
 25 51  1  0
 26 27  1  0
 26 28  1  0
 26 59  1  0
 27 52  1  0
 27 53  1  0
 27 54  1  0
 28 55  1  0
 28 56  1  0
 28 57  1  0
 29 58  1  0
M  CHG  1  26   1
M  END
>  <s_epik_cmdline>  (5) 
J2VwaWtfcHl0aG9uJywgJy1waCcsICc3LjAwMDAwMCcsICctcGh0JywgJzIuMDAwMDAwJywgJy1tcycsICcxNicsICctdG4nLCAnOCcsICctbWEnLCAnMjAwJywgJy1pbWFlJywgJzxpbmZpbGUubWFlPicsICctb21hZScsICc8b3V0ZmlsZS5tYWU+Jw==

>  <s_epik_input>  (5) 
W2NIXTFbY0hdW2NIXWMoW0NIMl1OKFtDSDNdKVtDSDNdKVtjSF1jMVtDSDJdW05IXWMoW2NIXTIpW2NIXXNjMkMoPU8pW05IXVtDQEhdKFtDSDJdW0NIM10pYzNbY0hdW2NIXVtjSF1bY0hdW2NIXTM=

>  <s_i_glide_gridfile>  (5) 
ATP-Grid

>  <s_lp_Force_Field>  (5) 
OPLS_2005

>  <s_lp_Variant>  (5) 
rxn512b____EMOL509166____EMOL720738____EMOL2873214-1

>  <s_lp_label>  (5) 
2847_sdstereoexpander_1_neutralizer_1_epik_1_stereoizer_1

>  <s_m_source_file>  (5) 
ATP-VSW-LIGPREP-001-in.maegz

>  <s_sd_BIOSOLVEIT.INFINISEE\_QUERY\_NAME>  (5) 
Ref-Lig

>  <s_sd_BIOSOLVEIT.INFINISEE\_QUERY\_SMILES>  (5) 
S(c1nc2c(cc1C[NH2+]Cc3ccc(cc3)C[NH+](C)C)cccc2)Cc4ccccc4

>  <s_sd_BIOSOLVEIT.INFINISEE\_REACTION\_NAME>  (5) 
rxn512b

>  <s_sd_BIOSOLVEIT.INFINISEE\_REAGENT1\_NAME>  (5) 
EMOL509166

>  <s_sd_BIOSOLVEIT.INFINISEE\_REAGENT1\_SMILES>  (5) 
NC(c1ccccc1)CC

>  <s_sd_BIOSOLVEIT.INFINISEE\_REAGENT2\_NAME>  (5) 
EMOL720738

>  <s_sd_BIOSOLVEIT.INFINISEE\_REAGENT2\_SMILES>  (5) 
BrC1=CSC(C(=O)O)=C1

>  <s_sd_BIOSOLVEIT.INFINISEE\_REAGENT3\_NAME>  (5) 
EMOL2873214

>  <s_sd_BIOSOLVEIT.INFINISEE\_REAGENT3\_SMILES>  (5) 
N(Cc1cc(ccc1)CN)(C)C

>  <s_sd_BIOSOLVEIT.INFINISEE\_SPACE>  (5) 
eXplore_7tr_2022-12

>  <s_vsw_compound_code>  (5) 
91073

>  <s_vsw_variant>  (5) 
91073-1

>  <r_epik_Charging_Adjusted_Penalty>  (5) 
0.086140609825027206

>  <r_epik_Ionization_Penalty>  (5) 
0.043099999999999999

>  <r_epik_Ionization_Penalty_Charging>  (5) 
0.043099999999999999

>  <r_epik_Ionization_Penalty_Neutral>  (5) 
0

>  <r_epik_State_Penalty>  (5) 
0.043099999999999999

>  <r_i_docking_score>  (5) 
-4.4075856409840002

>  <r_i_glide_ecoul>  (5) 
-8.3369121551513707

>  <r_i_glide_eff_state_penalty>  (5) 
0.043099999999999999

>  <r_i_glide_einternal>  (5) 
8.63568210601807

>  <r_i_glide_emodel>  (5) 
-55.577574161954402

>  <r_i_glide_energy>  (5) 
-43.5440769195557

>  <r_i_glide_erotb>  (5) 
0.825328389943362

>  <r_i_glide_esite>  (5) 
-0.155925727092525

>  <r_i_glide_evdw>  (5) 
-35.207164764404297

>  <r_i_glide_gscore>  (5) 
-4.4506856409840001

>  <r_i_glide_hbond>  (5) 
-0.073542419814746796

>  <r_i_glide_ligand_efficiency>  (5) 
-0.15198571175806899

>  <r_i_glide_ligand_efficiency_ln>  (5) 
-1.0092253450569799

>  <r_i_glide_ligand_efficiency_sa>  (5) 
-0.46694825897403702

>  <r_i_glide_lipo>  (5) 
-1.1873360497998999

>  <r_i_glide_metal>  (5) 
-0

>  <r_i_glide_rewards>  (5) 
-0.84831477272727096

>  <r_lp_Energy>  (5) 
14.441268000000001

>  <r_lp_tautomer_probability>  (5) 
0.99999274205267796

>  <r_qp_ACxDN^.5/SA>  (5) 
0.010853

>  <r_qp_CIQPlogS>  (5) 
-4.1559999999999997

>  <r_qp_EA(eV)>  (5) 
0.65900000000000003

>  <r_qp_FISA>  (5) 
60.146999999999998

>  <r_qp_FOSA>  (5) 
276.82999999999998

>  <r_qp_IP(eV)>  (5) 
8.4079999999999995

>  <r_qp_Jm>  (5) 
0.0029060723272019699

>  <r_qp_PISA>  (5) 
341.72699999999998

>  <r_qp_PSA>  (5) 
53.847999999999999

>  <r_qp_PercentHumanOralAbsorption>  (5) 
92.144000000000005

>  <r_qp_QPPCaco>  (5) 
165.70099999999999

>  <r_qp_QPPMDCK>  (5) 
140.06899999999999

>  <r_qp_QPlogBB>  (5) 
0.318

>  <r_qp_QPlogHERG>  (5) 
-7.4870000000000001

>  <r_qp_QPlogKhsa>  (5) 
0.77200000000000002

>  <r_qp_QPlogKp>  (5) 
-4.6849999999999996

>  <r_qp_QPlogPC16>  (5) 
14.259

>  <r_qp_QPlogPo/w>  (5) 
4.351

>  <r_qp_QPlogPoct>  (5) 
21.373999999999999

>  <r_qp_QPlogPw>  (5) 
10.552

>  <r_qp_QPlogS>  (5) 
-3.4620000000000002

>  <r_qp_QPpolrz>  (5) 
45.177999999999997

>  <r_qp_SASA>  (5) 
716.68399999999997

>  <r_qp_SAamideO>  (5) 
0

>  <r_qp_SAfluorine>  (5) 
0

>  <r_qp_WPSA>  (5) 
37.978999999999999

>  <r_qp_accptHB>  (5) 
5.5

>  <r_qp_dip^2/V>  (5) 
0.044235299999999998

>  <r_qp_dipole>  (5) 
7.7149999999999999

>  <r_qp_donorHB>  (5) 
2

>  <r_qp_glob>  (5) 
0.82242119999999996

>  <r_qp_mol_MW>  (5) 
407.57299999999998

>  <r_qp_volume>  (5) 
1345.5050000000001

>  <r_sd_BIOSOLVEIT.INFINISEE\_FTREES\_SIMILARITY>  (5) 
0.90500000000000003

>  <r_sd_BIOSOLVEIT.LOGP>  (5) 
3.8858000000000001

>  <r_sd_BIOSOLVEIT.MOLECULAR\_WEIGHT>  (5) 
408.58600000000001

>  <r_sd_BIOSOLVEIT.TPSA>  (5) 
45.57

>  <i_epik_Tot_Q>  (5) 
1

>  <i_epik_Tot_abs_Q>  (5) 
1

>  <i_f3d_flags>  (5) 
0

>  <i_i_glide_confnum>  (5) 
8

>  <i_i_glide_lignum>  (5) 
1309

>  <i_i_glide_posenum>  (5) 
15

>  <i_i_glide_rotatable_bonds>  (5) 
10

>  <i_lp_mmshare_version>  (5) 
65135

>  <i_m_ct_format>  (5) 
2

>  <i_m_source_file_index>  (5) 
2847

>  <i_qp_#NandO>  (5) 
4

>  <i_qp_#acid>  (5) 
0

>  <i_qp_#amide>  (5) 
0

>  <i_qp_#amidine>  (5) 
0

>  <i_qp_#amine>  (5) 
2

>  <i_qp_#in34>  (5) 
0

>  <i_qp_#in56>  (5) 
17

>  <i_qp_#metab>  (5) 
7

>  <i_qp_#nonHatm>  (5) 
29

>  <i_qp_#noncon>  (5) 
0

>  <i_qp_#ringatoms>  (5) 
17

>  <i_qp_#rotor>  (5) 
9

>  <i_qp_#rtvFG>  (5) 
0

>  <i_qp_#stars>  (5) 
0

>  <i_qp_CNS>  (5) 
1

>  <i_qp_HumanOralAbsorption>  (5) 
3

>  <i_qp_RuleOfFive>  (5) 
0

>  <i_qp_RuleOfThree>  (5) 
1

>  <i_sd_BIOSOLVEIT.INFINISEE\_RESULT\_RANK>  (5) 
68642

>  <i_sd_version>  (5) 
0

>  <b_lp_Chiralities_Consistent>  (5) 
1

>  <b_sd_chiral_flag>  (5) 
0

>  <canonical_id>  (5) 
ATP-HTVS-D78134F4C173

>  <compound_code>  (5) 
91073

>  <title>  (5) 
rxn512b____EMOL509166____EMOL720738____EMOL2873214

>  <variant>  (5) 
91073-1

>  <source_file>  (5) 
运行/运行/ATP-VSW/ATP-VSW-DOCK_HTVS_1-001_lib/ATP-VSW-DOCK_HTVS_1-001_lib

>  <canonical_smiles>  (5) 
CC[C@@H](NC(=O)c1cc(NCc2cccc(C[NH+](C)C)c2)cs1)c1ccccc1

>  <scaffold>  (5) 
O=C(NCc1ccccc1)c1cc(NCc2ccccc2)cs1

>  <molecular_formula>  (5) 
C24H30N3OS+

>  <acquisition_id_v2>  (5) 
ATP-ACQ2-0005

>  <selection_arm_v2>  (5) 
local_structure_bridge

>  <priority_v2>  (5) 
P0

$$$$
ATP-ACQ2-0006
     RDKit          3D

 56 59  0  0  0  0  0  0  0  0999 V2000
  199.7134  185.5579  159.0680 Br  0  0  0  0  0  0  0  0  0  0  0  0
  198.5097  184.5885  157.8022 C   0  0  1  0  0  0  0  0  0  0  0  0
  197.1264  184.4847  158.4376 C   0  0  0  0  0  0  0  0  0  0  0  0
  196.5409  185.5790  159.1189 C   0  0  0  0  0  0  0  0  0  0  0  0
  195.2754  185.4496  159.7197 C   0  0  0  0  0  0  0  0  0  0  0  0
  194.5699  184.2369  159.6242 C   0  0  0  0  0  0  0  0  0  0  0  0
  195.1343  183.1474  158.9313 C   0  0  0  0  0  0  0  0  0  0  0  0
  196.4091  183.2711  158.3437 C   0  0  0  0  0  0  0  0  0  0  0  0
  198.4214  185.2818  156.4359 C   0  0  0  0  0  0  0  0  0  0  0  0
  198.4309  186.5116  156.3798 O   0  0  0  0  0  0  0  0  0  0  0  0
  198.3223  184.4848  155.3517 N   0  0  0  0  0  0  0  0  0  0  0  0
  198.2576  184.8766  153.9826 C   0  0  0  0  0  0  0  0  0  0  0  0
  197.6074  184.0374  153.0304 C   0  0  0  0  0  0  0  0  0  0  0  0
  196.9761  182.8419  153.4206 N   0  0  0  0  0  0  0  0  0  0  0  0
  197.5667  181.7516  154.0702 C   0  0  0  0  0  0  0  0  0  0  0  0
  196.7307  180.7710  154.6232 C   0  0  0  0  0  0  0  0  0  0  0  0
  197.2869  179.6582  155.2874 C   0  0  0  0  0  0  0  0  0  0  0  0
  198.6851  179.5179  155.4101 C   0  0  0  0  0  0  0  0  0  0  0  0
  199.1570  178.3744  156.0848 N   0  0  0  0  0  0  0  0  0  0  0  0
  200.5769  178.1207  156.3324 C   0  0  0  0  0  0  0  0  0  0  0  0
  200.9323  178.4238  157.7890 C   0  0  0  0  0  0  0  0  0  0  0  0
  200.3426  177.4416  158.6132 O   0  0  0  0  0  0  0  0  0  0  0  0
  199.5204  180.5032  154.8430 C   0  0  0  0  0  0  0  0  0  0  0  0
  198.9626  181.6067  154.1739 C   0  0  0  0  0  0  0  0  0  0  0  0
  197.5452  184.4533  151.6759 C   0  0  0  0  0  0  0  0  0  0  0  0
  198.1752  185.6704  151.2996 C   0  0  0  0  0  0  0  0  0  0  0  0
  198.8037  186.4107  152.2312 N   0  0  0  0  0  0  0  0  0  0  0  0
  198.8817  186.0647  153.5258 C   0  0  0  0  0  0  0  0  0  0  0  0
  198.1556  186.1065  149.9678 C   0  0  0  0  0  0  0  0  0  0  0  0
  197.4847  185.3529  148.9860 C   0  0  0  0  0  0  0  0  0  0  0  0
  196.8527  184.1463  149.3426 C   0  0  0  0  0  0  0  0  0  0  0  0
  196.8811  183.6962  150.6774 C   0  0  0  0  0  0  0  0  0  0  0  0
  198.9428  183.5913  157.6854 H   0  0  0  0  0  0  0  0  0  0  0  0
  197.0537  186.5253  159.1846 H   0  0  0  0  0  0  0  0  0  0  0  0
  194.8384  186.2874  160.2412 H   0  0  0  0  0  0  0  0  0  0  0  0
  193.5891  184.1493  160.0690 H   0  0  0  0  0  0  0  0  0  0  0  0
  194.5929  182.2132  158.8481 H   0  0  0  0  0  0  0  0  0  0  0  0
  196.8223  182.4220  157.8134 H   0  0  0  0  0  0  0  0  0  0  0  0
  198.1445  183.5019  155.5218 H   0  0  0  0  0  0  0  0  0  0  0  0
  196.0073  182.7328  153.1227 H   0  0  0  0  0  0  0  0  0  0  0  0
  195.6552  180.8696  154.5509 H   0  0  0  0  0  0  0  0  0  0  0  0
  196.6196  178.9169  155.7095 H   0  0  0  0  0  0  0  0  0  0  0  0
  198.4862  177.9444  156.7301 H   0  0  0  0  0  0  0  0  0  0  0  0
  200.8163  177.0819  156.0902 H   0  0  0  0  0  0  0  0  0  0  0  0
  201.2398  178.7173  155.7026 H   0  0  0  0  0  0  0  0  0  0  0  0
  202.0061  178.3438  157.9300 H   0  0  0  0  0  0  0  0  0  0  0  0
  200.6431  179.4267  158.0957 H   0  0  0  0  0  0  0  0  0  0  0  0
  199.4007  177.5036  158.5160 H   0  0  0  0  0  0  0  0  0  0  0  0
  200.5991  180.4619  154.9032 H   0  0  0  0  0  0  0  0  0  0  0  0
  199.6187  182.3440  153.7349 H   0  0  0  0  0  0  0  0  0  0  0  0
  199.4271  186.7566  154.1518 H   0  0  0  0  0  0  0  0  0  0  0  0
  198.6389  187.0325  149.7000 H   0  0  0  0  0  0  0  0  0  0  0  0
  197.4515  185.6932  147.9605 H   0  0  0  0  0  0  0  0  0  0  0  0
  196.3492  183.5703  148.5783 H   0  0  0  0  0  0  0  0  0  0  0  0
  196.3974  182.7592  150.9188 H   0  0  0  0  0  0  0  0  0  0  0  0
  199.2639  187.2696  151.9340 H   0  0  0  0  0  0  0  0  0  0  0  0
  1  2  1  0
  2  3  1  0
  2  9  1  0
  2 33  1  6
  3  4  2  0
  3  8  1  0
  4  5  1  0
  4 34  1  0
  5  6  2  0
  5 35  1  0
  6  7  1  0
  6 36  1  0
  7  8  2  0
  7 37  1  0
  8 38  1  0
  9 10  2  0
  9 11  1  0
 11 12  1  0
 11 39  1  0
 12 13  2  0
 12 28  1  0
 13 14  1  0
 13 25  1  0
 14 15  1  0
 14 40  1  0
 15 16  1  0
 15 24  2  0
 16 17  2  0
 16 41  1  0
 17 18  1  0
 17 42  1  0
 18 19  1  0
 18 23  2  0
 19 20  1  0
 19 43  1  0
 20 21  1  0
 20 44  1  0
 20 45  1  0
 21 22  1  0
 21 46  1  0
 21 47  1  0
 22 48  1  0
 23 24  1  0
 23 49  1  0
 24 50  1  0
 25 26  1  0
 25 32  2  0
 26 27  1  0
 26 29  2  0
 27 28  2  0
 27 56  1  0
 28 51  1  0
 29 30  1  0
 29 52  1  0
 30 31  2  0
 30 53  1  0
 31 32  1  0
 31 54  1  0
 32 55  1  0
M  CHG  1  27   1
M  END
>  <s_epik_cmdline>  (6) 
J2VwaWtfcHl0aG9uJywgJy1waCcsICc3LjAwMDAwMCcsICctcGh0JywgJzIuMDAwMDAwJywgJy1tcycsICcxNicsICctdG4nLCAnOCcsICctbWEnLCAnMjAwJywgJy1pbWFlJywgJzxpbmZpbGUubWFlPicsICctb21hZScsICc8b3V0ZmlsZS5tYWU+Jw==

>  <s_epik_input>  (6) 
W2NIXTFbY0hdW2NIXVtjSF1bY0hdYzFbQ0BIXShCcilDKD1PKVtOSF1jKFtjSF1uYyhjMjMpW2NIXVtjSF1bY0hdW2NIXTMpYzJbTkhdYzRbY0hdW2NIXWMoW2NIXVtjSF00KVtOSF1bQ0gyXVtDSDJdW09IXQ==

>  <s_i_glide_gridfile>  (6) 
ATP-Grid

>  <s_lp_Force_Field>  (6) 
OPLS_2005

>  <s_lp_Variant>  (6) 
rxn502b____EMOL535380____EMOL30488121____EMOL8314610-4

>  <s_lp_label>  (6) 
2493_sdstereoexpander_2_neutralizer_1_epik_2_stereoizer_1

>  <s_m_source_file>  (6) 
ATP-VSW-LIGPREP-003-in.maegz

>  <s_sd_BIOSOLVEIT.INFINISEE\_QUERY\_NAME>  (6) 
Ref-Lig

>  <s_sd_BIOSOLVEIT.INFINISEE\_QUERY\_SMILES>  (6) 
S(c1nc2c(cc1C[NH2+]Cc3ccc(cc3)C[NH+](C)C)cccc2)Cc4ccccc4

>  <s_sd_BIOSOLVEIT.INFINISEE\_REACTION\_NAME>  (6) 
rxn502b

>  <s_sd_BIOSOLVEIT.INFINISEE\_REAGENT1\_NAME>  (6) 
EMOL535380

>  <s_sd_BIOSOLVEIT.INFINISEE\_REAGENT1\_SMILES>  (6) 
BrC(c1ccccc1)C(=O)O

>  <s_sd_BIOSOLVEIT.INFINISEE\_REAGENT2\_NAME>  (6) 
EMOL30488121

>  <s_sd_BIOSOLVEIT.INFINISEE\_REAGENT2\_SMILES>  (6) 
Brc1c(N)cnc2c1cccc2

>  <s_sd_BIOSOLVEIT.INFINISEE\_REAGENT3\_NAME>  (6) 
EMOL8314610

>  <s_sd_BIOSOLVEIT.INFINISEE\_REAGENT3\_SMILES>  (6) 
OCCNc1ccc(N)cc1

>  <s_sd_BIOSOLVEIT.INFINISEE\_SPACE>  (6) 
eXplore_7tr_2022-12

>  <s_vsw_compound_code>  (6) 
79747

>  <s_vsw_variant>  (6) 
79747-4

>  <r_epik_Charging_Adjusted_Penalty>  (6) 
0.92913805223329704

>  <r_epik_Ionization_Penalty>  (6) 
0.47799999999999998

>  <r_epik_Ionization_Penalty_Charging>  (6) 
0.45119999999999999

>  <r_epik_Ionization_Penalty_Neutral>  (6) 
0.026800000000000001

>  <r_epik_State_Penalty>  (6) 
0.47799999999999998

>  <r_i_docking_score>  (6) 
-4.9084976723352698

>  <r_i_glide_ecoul>  (6) 
-11.091713905334499

>  <r_i_glide_eff_state_penalty>  (6) 
0.47799999999999998

>  <r_i_glide_einternal>  (6) 
8.7675380706787092

>  <r_i_glide_emodel>  (6) 
-63.742287169051501

>  <r_i_glide_energy>  (6) 
-48.980019569397001

>  <r_i_glide_erotb>  (6) 
0.67195920542512

>  <r_i_glide_esite>  (6) 
-0.14543806783416499

>  <r_i_glide_evdw>  (6) 
-37.8883056640625

>  <r_i_glide_gscore>  (6) 
-5.3864976723352704

>  <r_i_glide_hbond>  (6) 
-0.35316278884397201

>  <r_i_glide_ligand_efficiency>  (6) 
-0.15339055226047699

>  <r_i_glide_ligand_efficiency_ln>  (6) 
-1.0991464294290101

>  <r_i_glide_ligand_efficiency_sa>  (6) 
-0.48698464747794301

>  <r_i_glide_lipo>  (6) 
-1.9426058025793

>  <r_i_glide_metal>  (6) 
-0

>  <r_i_glide_rewards>  (6) 
-0.059077849499659801

>  <r_lp_Energy>  (6) 
42.310960999999999

>  <r_qp_ACxDN^.5/SA>  (6) 
0.018005799999999999

>  <r_qp_CIQPlogS>  (6) 
-7.5640000000000001

>  <r_qp_EA(eV)>  (6) 
1.089

>  <r_qp_FISA>  (6) 
118.169

>  <r_qp_FOSA>  (6) 
91.617999999999995

>  <r_qp_IP(eV)>  (6) 
7.7869999999999999

>  <r_qp_Jm>  (6) 
0.092115843390810595

>  <r_qp_PISA>  (6) 
504.42200000000003

>  <r_qp_PSA>  (6) 
88.063999999999993

>  <r_qp_PercentHumanOralAbsorption>  (6) 
100

>  <r_qp_QPPCaco>  (6) 
750.42499999999995

>  <r_qp_QPPMDCK>  (6) 
529.52700000000004

>  <r_qp_QPlogBB>  (6) 
-1.147

>  <r_qp_QPlogHERG>  (6) 
-7.2309999999999999

>  <r_qp_QPlogKhsa>  (6) 
0.42399999999999999

>  <r_qp_QPlogKp>  (6) 
-1.056

>  <r_qp_QPlogPC16>  (6) 
16.390999999999998

>  <r_qp_QPlogPo/w>  (6) 
4.3710000000000004

>  <r_qp_QPlogPoct>  (6) 
26.206

>  <r_qp_QPlogPw>  (6) 
16.228000000000002

>  <r_qp_QPlogS>  (6) 
-5.6710000000000003

>  <r_qp_QPpolrz>  (6) 
47.188000000000002

>  <r_qp_SASA>  (6) 
744.20399999999995

>  <r_qp_SAamideO>  (6) 
0

>  <r_qp_SAfluorine>  (6) 
0

>  <r_qp_WPSA>  (6) 
29.995999999999999

>  <r_qp_accptHB>  (6) 
6.7000000000000002

>  <r_qp_dip^2/V>  (6) 
0.056768600000000002

>  <r_qp_dipole>  (6) 
8.7769999999999992

>  <r_qp_donorHB>  (6) 
4

>  <r_qp_glob>  (6) 
0.79647800000000002

>  <r_qp_mol_MW>  (6) 
491.38600000000002

>  <r_qp_volume>  (6) 
1356.9100000000001

>  <r_sd_BIOSOLVEIT.INFINISEE\_FTREES\_SIMILARITY>  (6) 
0.91400000000000003

>  <r_sd_BIOSOLVEIT.LOGP>  (6) 
5.4573

>  <r_sd_BIOSOLVEIT.MOLECULAR\_WEIGHT>  (6) 
491.387

>  <r_sd_BIOSOLVEIT.TPSA>  (6) 
86.280000000000001

>  <i_epik_Tot_Q>  (6) 
1

>  <i_epik_Tot_abs_Q>  (6) 
1

>  <i_f3d_flags>  (6) 
0

>  <i_i_glide_confnum>  (6) 
10

>  <i_i_glide_lignum>  (6) 
1078

>  <i_i_glide_posenum>  (6) 
4

>  <i_i_glide_rotatable_bonds>  (6) 
10

>  <i_lp_mmshare_version>  (6) 
65135

>  <i_m_ct_format>  (6) 
2

>  <i_m_source_file_index>  (6) 
2493

>  <i_qp_#NandO>  (6) 
6

>  <i_qp_#acid>  (6) 
0

>  <i_qp_#amide>  (6) 
0

>  <i_qp_#amidine>  (6) 
0

>  <i_qp_#amine>  (6) 
0

>  <i_qp_#in34>  (6) 
0

>  <i_qp_#in56>  (6) 
22

>  <i_qp_#metab>  (6) 
8

>  <i_qp_#nonHatm>  (6) 
32

>  <i_qp_#noncon>  (6) 
0

>  <i_qp_#ringatoms>  (6) 
22

>  <i_qp_#rotor>  (6) 
9

>  <i_qp_#rtvFG>  (6) 
1

>  <i_qp_#stars>  (6) 
2

>  <i_qp_CNS>  (6) 
-2

>  <i_qp_HumanOralAbsorption>  (6) 
3

>  <i_qp_RuleOfFive>  (6) 
0

>  <i_qp_RuleOfThree>  (6) 
1

>  <i_sd_BIOSOLVEIT.INFINISEE\_RESULT\_RANK>  (6) 
29862

>  <i_sd_version>  (6) 
0

>  <b_lp_Chiralities_Consistent>  (6) 
1

>  <b_sd_chiral_flag>  (6) 
0

>  <canonical_id>  (6) 
ATP-HTVS-77ED8C900CC0

>  <compound_code>  (6) 
79747

>  <title>  (6) 
rxn502b____EMOL535380____EMOL30488121____EMOL8314610

>  <variant>  (6) 
79747-4

>  <source_file>  (6) 
运行/运行/ATP-VSW/ATP-VSW-DOCK_HTVS_1-003_lib/ATP-VSW-DOCK_HTVS_1-003_lib.mae

>  <canonical_smiles>  (6) 
O=C(Nc1c[nH+]c2ccccc2c1Nc1ccc(NCCO)cc1)[C@@H](Br)c1ccccc1

>  <scaffold>  (6) 
O=C(Cc1ccccc1)Nc1c[nH+]c2ccccc2c1Nc1ccccc1

>  <molecular_formula>  (6) 
C25H24BrN4O2+

>  <acquisition_id_v2>  (6) 
ATP-ACQ2-0006

>  <selection_arm_v2>  (6) 
scaffold_score_exploration

>  <priority_v2>  (6) 
P0

$$$$
ATP-ACQ2-0007
     RDKit          3D

 55 58  0  0  0  0  0  0  0  0999 V2000
  193.1737  183.8352  159.2803 F   0  0  0  0  0  0  0  0  0  0  0  0
  194.3847  184.3889  159.5336 C   0  0  0  0  0  0  0  0  0  0  0  0
  195.5654  183.7997  159.0135 C   0  0  0  0  0  0  0  0  0  0  0  0
  196.8096  184.4244  159.2768 C   0  0  0  0  0  0  0  0  0  0  0  0
  196.8690  185.6197  160.0201 C   0  0  0  0  0  0  0  0  0  0  0  0
  195.6951  186.1896  160.5389 C   0  0  0  0  0  0  0  0  0  0  0  0
  195.7565  187.3192  161.2825 F   0  0  0  0  0  0  0  0  0  0  0  0
  194.4594  185.5650  160.3094 C   0  0  0  0  0  0  0  0  0  0  0  0
  195.4678  182.5161  158.1729 C   0  0  2  0  0  0  0  0  0  0  0  0
  194.9741  181.4382  158.9415 O   0  0  0  0  0  0  0  0  0  0  0  0
  196.8276  182.1000  157.5785 C   0  0  0  0  0  0  0  0  0  0  0  0
  196.7228  181.0797  156.5247 N   0  0  0  0  0  0  0  0  0  0  0  0
  198.0214  180.8118  155.8694 C   0  0  0  0  0  0  0  0  0  0  0  0
  197.8018  180.2503  154.5001 C   0  0  0  0  0  0  0  0  0  0  0  0
  198.4626  179.1767  153.8274 C   0  0  0  0  0  0  0  0  0  0  0  0
  198.0374  179.0457  152.5733 N   0  0  0  0  0  0  0  0  0  0  0  0
  197.1147  180.0164  152.4025 N   0  0  0  0  0  0  0  0  0  0  0  0
  196.9321  180.7411  153.5568 C   0  0  0  0  0  0  0  0  0  0  0  0
  196.4821  180.2130  151.1039 C   0  0  0  0  0  0  0  0  0  0  0  0
  196.9373  181.5242  150.4857 C   0  0  0  0  0  0  0  0  0  0  0  0
  196.3627  182.7460  150.8997 C   0  0  0  0  0  0  0  0  0  0  0  0
  196.7862  183.9585  150.3217 C   0  0  0  0  0  0  0  0  0  0  0  0
  197.7858  183.9581  149.3313 C   0  0  0  0  0  0  0  0  0  0  0  0
  198.3671  182.7438  148.9199 C   0  0  0  0  0  0  0  0  0  0  0  0
  197.9464  181.5292  149.4977 C   0  0  0  0  0  0  0  0  0  0  0  0
  199.5079  178.2550  154.3127 C   0  0  0  0  0  0  0  0  0  0  0  0
  200.4792  177.7388  153.4176 C   0  0  0  0  0  0  0  0  0  0  0  0
  201.4806  176.8516  153.8757 C   0  0  0  0  0  0  0  0  0  0  0  0
  201.5364  176.4968  155.2383 C   0  0  0  0  0  0  0  0  0  0  0  0
  200.5716  177.0019  156.1313 C   0  0  0  0  0  0  0  0  0  0  0  0
  199.5455  177.8527  155.6671 C   0  0  0  0  0  0  0  0  0  0  0  0
  196.3354  180.2183  156.9111 H   0  0  0  0  0  0  0  0  0  0  0  0
  197.7516  184.0313  158.9216 H   0  0  0  0  0  0  0  0  0  0  0  0
  197.8258  186.0869  160.1867 H   0  0  0  0  0  0  0  0  0  0  0  0
  193.5562  186.0039  160.7002 H   0  0  0  0  0  0  0  0  0  0  0  0
  194.7700  182.7129  157.3534 H   0  0  0  0  0  0  0  0  0  0  0  0
  195.1232  180.5979  158.5231 H   0  0  0  0  0  0  0  0  0  0  0  0
  197.2931  182.9623  157.0967 H   0  0  0  0  0  0  0  0  0  0  0  0
  197.5012  181.7489  158.3619 H   0  0  0  0  0  0  0  0  0  0  0  0
  198.6042  181.7345  155.7767 H   0  0  0  0  0  0  0  0  0  0  0  0
  198.5841  180.1532  156.5535 H   0  0  0  0  0  0  0  0  0  0  0  0
  196.2298  181.5604  153.5889 H   0  0  0  0  0  0  0  0  0  0  0  0
  196.7236  179.3750  150.4470 H   0  0  0  0  0  0  0  0  0  0  0  0
  195.4021  180.2197  151.2338 H   0  0  0  0  0  0  0  0  0  0  0  0
  195.6015  182.7637  151.6660 H   0  0  0  0  0  0  0  0  0  0  0  0
  196.3474  184.8909  150.6404 H   0  0  0  0  0  0  0  0  0  0  0  0
  198.1063  184.8889  148.8877 H   0  0  0  0  0  0  0  0  0  0  0  0
  199.1373  182.7430  148.1618 H   0  0  0  0  0  0  0  0  0  0  0  0
  198.4046  180.6029  149.1801 H   0  0  0  0  0  0  0  0  0  0  0  0
  200.4522  177.9971  152.3665 H   0  0  0  0  0  0  0  0  0  0  0  0
  202.2017  176.4438  153.1752 H   0  0  0  0  0  0  0  0  0  0  0  0
  202.3041  175.8211  155.5951 H   0  0  0  0  0  0  0  0  0  0  0  0
  200.6007  176.7302  157.1730 H   0  0  0  0  0  0  0  0  0  0  0  0
  198.7834  178.1812  156.3672 H   0  0  0  0  0  0  0  0  0  0  0  0
  196.0670  181.4474  155.8456 H   0  0  0  0  0  0  0  0  0  0  0  0
  1  2  1  0
  2  3  2  0
  2  8  1  0
  3  4  1  0
  3  9  1  0
  4  5  2  0
  4 33  1  0
  5  6  1  0
  5 34  1  0
  6  7  1  0
  6  8  2  0
  8 35  1  0
  9 10  1  0
  9 11  1  0
  9 36  1  6
 10 37  1  0
 11 12  1  0
 11 38  1  0
 11 39  1  0
 12 13  1  0
 12 32  1  0
 12 55  1  0
 13 14  1  0
 13 40  1  0
 13 41  1  0
 14 15  1  0
 14 18  2  0
 15 16  2  0
 15 26  1  0
 16 17  1  0
 17 18  1  0
 17 19  1  0
 18 42  1  0
 19 20  1  0
 19 43  1  0
 19 44  1  0
 20 21  2  0
 20 25  1  0
 21 22  1  0
 21 45  1  0
 22 23  2  0
 22 46  1  0
 23 24  1  0
 23 47  1  0
 24 25  2  0
 24 48  1  0
 25 49  1  0
 26 27  2  0
 26 31  1  0
 27 28  1  0
 27 50  1  0
 28 29  2  0
 28 51  1  0
 29 30  1  0
 29 52  1  0
 30 31  2  0
 30 53  1  0
 31 54  1  0
M  CHG  1  12   1
M  END
>  <s_epik_cmdline>  (7) 
J2VwaWtfcHl0aG9uJywgJy1waCcsICc3LjAwMDAwMCcsICctcGh0JywgJzIuMDAwMDAwJywgJy1tcycsICcxNicsICctdG4nLCAnOCcsICctbWEnLCAnMjAwJywgJy1pbWFlJywgJzxpbmZpbGUubWFlPicsICctb21hZScsICc8b3V0ZmlsZS5tYWU+Jw==

>  <s_epik_input>  (7) 
RmMoW2NIXTEpW2NIXVtjSF1jKGMxRilbQ0BIXShbT0hdKVtDSDJdW05IXVtDSDJdYzJjKC1jM1tjSF1bY0hdW2NIXVtjSF1bY0hdMylubihbY0hdMilbQ0gyXWM0W2NIXVtjSF1bY0hdW2NIXVtjSF00

>  <s_i_glide_gridfile>  (7) 
ATP-Grid

>  <s_lp_Force_Field>  (7) 
OPLS_2005

>  <s_lp_Variant>  (7) 
m_270004bbb____16500566____7548060-2

>  <s_lp_label>  (7) 
2072_sdstereoexpander_2_neutralizer_1_epik_1_stereoizer_1

>  <s_m_source_file>  (7) 
ATP-VSW-LIGPREP-001-in.maegz

>  <s_sd_BIOSOLVEIT.INFINISEE\_QUERY\_NAME>  (7) 
Ref-Lig

>  <s_sd_BIOSOLVEIT.INFINISEE\_QUERY\_SMILES>  (7) 
S(c1nc2c(cc1C[NH2+]Cc3ccc(cc3)C[NH+](C)C)cccc2)Cc4ccccc4

>  <s_sd_BIOSOLVEIT.INFINISEE\_REACTION\_NAME>  (7) 
m_270004bbb

>  <s_sd_BIOSOLVEIT.INFINISEE\_REAGENT1\_SMILES>  (7) 
[R1*]NCC(O)c1c(F)cc(F)cc1

>  <s_sd_BIOSOLVEIT.INFINISEE\_REAGENT2\_SMILES>  (7) 
[R1*]CC=1C(=NN(C1)Cc2ccccc2)c3ccccc3

>  <s_sd_BIOSOLVEIT.INFINISEE\_SPACE>  (7) 
REALSpace_44bn_2023-08

>  <s_vsw_compound_code>  (7) 
66273

>  <s_vsw_variant>  (7) 
66273-2

>  <r_epik_Charging_Adjusted_Penalty>  (7) 
0.14210174952166199

>  <r_epik_Ionization_Penalty>  (7) 
0.071099999999999997

>  <r_epik_Ionization_Penalty_Charging>  (7) 
0.071099999999999997

>  <r_epik_Ionization_Penalty_Neutral>  (7) 
0

>  <r_epik_State_Penalty>  (7) 
0.071099999999999997

>  <r_i_docking_score>  (7) 
-6.7221722658838203

>  <r_i_glide_ecoul>  (7) 
-15.335029602050801

>  <r_i_glide_eff_state_penalty>  (7) 
0.071099999999999997

>  <r_i_glide_einternal>  (7) 
6.1641049385070801

>  <r_i_glide_emodel>  (7) 
-78.007283716339998

>  <r_i_glide_energy>  (7) 
-50.154636383056598

>  <r_i_glide_erotb>  (7) 
0.78365562477255302

>  <r_i_glide_esite>  (7) 
-0.128389902488562

>  <r_i_glide_evdw>  (7) 
-34.819606781005902

>  <r_i_glide_gscore>  (7) 
-6.7932722658838198

>  <r_i_glide_hbond>  (7) 
-0.35999999999999999

>  <r_i_glide_ligand_efficiency>  (7) 
-0.21684426664141301

>  <r_i_glide_ligand_efficiency_ln>  (7) 
-1.5160558557959001

>  <r_i_glide_ligand_efficiency_sa>  (7) 
-0.681190383029604

>  <r_i_glide_lipo>  (7) 
-1.9347941619768101

>  <r_i_glide_metal>  (7) 
-0

>  <r_i_glide_rewards>  (7) 
-1.11250904683309

>  <r_lp_Energy>  (7) 
18.847131000000001

>  <r_lp_tautomer_probability>  (7) 
1

>  <r_qp_ACxDN^.5/SA>  (7) 
0.0098610999999999994

>  <r_qp_CIQPlogS>  (7) 
-6.1079999999999997

>  <r_qp_EA(eV)>  (7) 
0.58799999999999997

>  <r_qp_FISA>  (7) 
55.247

>  <r_qp_FOSA>  (7) 
113.124

>  <r_qp_IP(eV)>  (7) 
8.7300000000000004

>  <r_qp_Jm>  (7) 
0.088994429101352607

>  <r_qp_PISA>  (7) 
450.80500000000001

>  <r_qp_PSA>  (7) 
48.171999999999997

>  <r_qp_PercentHumanOralAbsorption>  (7) 
100

>  <r_qp_QPPCaco>  (7) 
739.42200000000003

>  <r_qp_QPPMDCK>  (7) 
788.99599999999998

>  <r_qp_QPlogBB>  (7) 
0.097000000000000003

>  <r_qp_QPlogHERG>  (7) 
-6.9359999999999999

>  <r_qp_QPlogKhsa>  (7) 
0.78200000000000003

>  <r_qp_QPlogKp>  (7) 
-2.2440000000000002

>  <r_qp_QPlogPC16>  (7) 
13.715999999999999

>  <r_qp_QPlogPo/w>  (7) 
4.992

>  <r_qp_QPlogPoct>  (7) 
20.597999999999999

>  <r_qp_QPlogPw>  (7) 
10.597

>  <r_qp_QPlogS>  (7) 
-4.4290000000000003

>  <r_qp_QPpolrz>  (7) 
44.055

>  <r_qp_SASA>  (7) 
674.04300000000001

>  <r_qp_SAamideO>  (7) 
0

>  <r_qp_SAfluorine>  (7) 
54.866

>  <r_qp_WPSA>  (7) 
54.866

>  <r_qp_accptHB>  (7) 
4.7000000000000002

>  <r_qp_dip^2/V>  (7) 
0.023676699999999998

>  <r_qp_dipole>  (7) 
5.4950000000000001

>  <r_qp_donorHB>  (7) 
2

>  <r_qp_glob>  (7) 
0.84379780000000004

>  <r_qp_mol_MW>  (7) 
419.47300000000001

>  <r_qp_volume>  (7) 
1275.385

>  <r_sd_BIOSOLVEIT.INFINISEE\_FTREES\_SIMILARITY>  (7) 
0.90100000000000002

>  <r_sd_BIOSOLVEIT.LOGP>  (7) 
3.6736

>  <r_sd_BIOSOLVEIT.MOLECULAR\_WEIGHT>  (7) 
420.48099999999999

>  <r_sd_BIOSOLVEIT.TPSA>  (7) 
54.659999999999997

>  <i_epik_Tot_Q>  (7) 
1

>  <i_epik_Tot_abs_Q>  (7) 
1

>  <i_f3d_flags>  (7) 
0

>  <i_i_glide_confnum>  (7) 
7

>  <i_i_glide_lignum>  (7) 
645

>  <i_i_glide_posenum>  (7) 
11

>  <i_i_glide_rotatable_bonds>  (7) 
9

>  <i_lp_mmshare_version>  (7) 
65135

>  <i_m_ct_format>  (7) 
2

>  <i_m_source_file_index>  (7) 
2072

>  <i_qp_#NandO>  (7) 
4

>  <i_qp_#acid>  (7) 
0

>  <i_qp_#amide>  (7) 
0

>  <i_qp_#amidine>  (7) 
0

>  <i_qp_#amine>  (7) 
1

>  <i_qp_#in34>  (7) 
0

>  <i_qp_#in56>  (7) 
23

>  <i_qp_#metab>  (7) 
4

>  <i_qp_#nonHatm>  (7) 
31

>  <i_qp_#noncon>  (7) 
0

>  <i_qp_#ringatoms>  (7) 
23

>  <i_qp_#rotor>  (7) 
8

>  <i_qp_#rtvFG>  (7) 
0

>  <i_qp_#stars>  (7) 
1

>  <i_qp_CNS>  (7) 
1

>  <i_qp_HumanOralAbsorption>  (7) 
3

>  <i_qp_RuleOfFive>  (7) 
0

>  <i_qp_RuleOfThree>  (7) 
0

>  <i_sd_BIOSOLVEIT.INFINISEE\_REAGENT1\_NAME>  (7) 
16500566

>  <i_sd_BIOSOLVEIT.INFINISEE\_REAGENT2\_NAME>  (7) 
7548060

>  <i_sd_BIOSOLVEIT.INFINISEE\_RESULT\_RANK>  (7) 
95448

>  <i_sd_version>  (7) 
0

>  <b_lp_Chiralities_Consistent>  (7) 
1

>  <b_sd_chiral_flag>  (7) 
0

>  <canonical_id>  (7) 
ATP-HTVS-D6043925B579

>  <compound_code>  (7) 
66273

>  <title>  (7) 
m_270004bbb____16500566____7548060

>  <variant>  (7) 
66273-2

>  <source_file>  (7) 
运行/运行/ATP-VSW/ATP-VSW-DOCK_HTVS_1-001_lib/ATP-VSW-DOCK_HTVS_1-001_lib

>  <canonical_smiles>  (7) 
O[C@H](C[NH2+]Cc1cn(Cc2ccccc2)nc1-c1ccccc1)c1ccc(F)cc1F

>  <scaffold>  (7) 
c1ccc(CC[NH2+]Cc2cn(Cc3ccccc3)nc2-c2ccccc2)cc1

>  <molecular_formula>  (7) 
C25H24F2N3O+

>  <acquisition_id_v2>  (7) 
ATP-ACQ2-0007

>  <selection_arm_v2>  (7) 
exploitation

>  <priority_v2>  (7) 
P0

$$$$
ATP-ACQ2-0008
     RDKit          3D

 65 67  0  0  0  0  0  0  0  0999 V2000
  198.2033  178.7324  149.8318 O   0  0  0  0  0  0  0  0  0  0  0  0
  198.1110  179.0762  151.1539 C   0  0  0  0  0  0  0  0  0  0  0  0
  199.0996  178.6267  152.0561 C   0  0  0  0  0  0  0  0  0  0  0  0
  200.1373  177.8738  151.5410 O   0  0  0  0  0  0  0  0  0  0  0  0
  201.1481  177.4211  152.4342 C   0  0  0  0  0  0  0  0  0  0  0  0
  198.9747  178.9662  153.4247 C   0  0  0  0  0  0  0  0  0  0  0  0
  197.8774  179.7201  153.8819 C   0  0  0  0  0  0  0  0  0  0  0  0
  196.8912  180.1576  152.9739 C   0  0  0  0  0  0  0  0  0  0  0  0
  197.0018  179.8234  151.6123 C   0  0  0  0  0  0  0  0  0  0  0  0
  196.0336  180.2205  150.7368 O   0  0  0  0  0  0  0  0  0  0  0  0
  197.7552  180.0278  155.3525 C   0  0  0  0  0  0  0  0  0  0  0  0
  198.6486  181.1463  155.7206 N   0  0  0  0  0  0  0  0  0  0  0  0
  198.7218  181.3944  157.1677 C   0  0  0  0  0  0  0  0  0  0  0  0
  198.1243  182.7606  157.5989 C   0  0  2  0  0  0  0  0  0  0  0  0
  199.2017  183.7782  157.9277 C   0  0  0  0  0  0  0  0  0  0  0  0
  199.3786  184.9131  157.0981 C   0  0  0  0  0  0  0  0  0  0  0  0
  200.3600  185.8742  157.4090 C   0  0  0  0  0  0  0  0  0  0  0  0
  201.1682  185.7111  158.5499 C   0  0  0  0  0  0  0  0  0  0  0  0
  200.9918  184.5886  159.3840 C   0  0  0  0  0  0  0  0  0  0  0  0
  200.0108  183.6273  159.0701 C   0  0  0  0  0  0  0  0  0  0  0  0
  197.0875  182.6477  158.7426 C   0  0  0  0  0  0  0  0  0  0  0  0
  195.9626  181.7372  158.4042 N   0  0  0  0  0  0  0  0  0  0  0  0
  195.0198  181.4790  159.4865 C   0  0  0  0  0  0  0  0  0  0  0  0
  195.1965  182.1536  157.2280 C   0  0  0  0  0  0  0  0  0  0  0  0
  198.6610  179.7853  148.9983 C   0  0  0  0  0  0  0  0  0  0  0  0
  198.4599  179.4836  147.5279 C   0  0  0  0  0  0  0  0  0  0  0  0
  197.5470  178.4841  147.1120 C   0  0  0  0  0  0  0  0  0  0  0  0
  197.3506  178.2452  145.7407 C   0  0  0  0  0  0  0  0  0  0  0  0
  198.0342  179.0166  144.7852 C   0  0  0  0  0  0  0  0  0  0  0  0
  198.9498  180.0065  145.1925 C   0  0  0  0  0  0  0  0  0  0  0  0
  199.1506  180.2430  146.5639 C   0  0  0  0  0  0  0  0  0  0  0  0
  199.5768  180.9176  155.3885 H   0  0  0  0  0  0  0  0  0  0  0  0
  201.9035  176.8666  151.8766 H   0  0  0  0  0  0  0  0  0  0  0  0
  200.7410  176.7491  153.1926 H   0  0  0  0  0  0  0  0  0  0  0  0
  201.6540  178.2551  152.9251 H   0  0  0  0  0  0  0  0  0  0  0  0
  199.7018  178.6268  154.1496 H   0  0  0  0  0  0  0  0  0  0  0  0
  196.0426  180.7354  153.3090 H   0  0  0  0  0  0  0  0  0  0  0  0
  196.2731  179.9984  149.8510 H   0  0  0  0  0  0  0  0  0  0  0  0
  196.7198  180.2662  155.5869 H   0  0  0  0  0  0  0  0  0  0  0  0
  197.9929  179.1251  155.9217 H   0  0  0  0  0  0  0  0  0  0  0  0
  198.2128  180.5588  157.6675 H   0  0  0  0  0  0  0  0  0  0  0  0
  199.7614  181.2997  157.4748 H   0  0  0  0  0  0  0  0  0  0  0  0
  197.6305  183.2171  156.7465 H   0  0  0  0  0  0  0  0  0  0  0  0
  198.7630  185.0653  156.2247 H   0  0  0  0  0  0  0  0  0  0  0  0
  200.4909  186.7388  156.7691 H   0  0  0  0  0  0  0  0  0  0  0  0
  201.9236  186.4476  158.7847 H   0  0  0  0  0  0  0  0  0  0  0  0
  201.6120  184.4656  160.2627 H   0  0  0  0  0  0  0  0  0  0  0  0
  199.8910  182.7759  159.7244 H   0  0  0  0  0  0  0  0  0  0  0  0
  197.5642  182.2733  159.6466 H   0  0  0  0  0  0  0  0  0  0  0  0
  196.6870  183.6272  158.9942 H   0  0  0  0  0  0  0  0  0  0  0  0
  194.5715  182.4149  159.8136 H   0  0  0  0  0  0  0  0  0  0  0  0
  195.5159  180.9503  160.2811 H   0  0  0  0  0  0  0  0  0  0  0  0
  194.2236  180.8057  159.1606 H   0  0  0  0  0  0  0  0  0  0  0  0
  194.7481  183.1283  157.3963 H   0  0  0  0  0  0  0  0  0  0  0  0
  194.4168  181.4188  157.0370 H   0  0  0  0  0  0  0  0  0  0  0  0
  195.7840  182.1875  156.3146 H   0  0  0  0  0  0  0  0  0  0  0  0
  198.1431  180.7238  149.2064 H   0  0  0  0  0  0  0  0  0  0  0  0
  199.7221  179.9577  149.1906 H   0  0  0  0  0  0  0  0  0  0  0  0
  196.9877  177.9040  147.8288 H   0  0  0  0  0  0  0  0  0  0  0  0
  196.6563  177.4784  145.4291 H   0  0  0  0  0  0  0  0  0  0  0  0
  197.8905  178.8258  143.7346 H   0  0  0  0  0  0  0  0  0  0  0  0
  199.4879  180.5722  144.4477 H   0  0  0  0  0  0  0  0  0  0  0  0
  199.8427  181.0181  146.8703 H   0  0  0  0  0  0  0  0  0  0  0  0
  196.2956  180.8132  158.1864 H   0  0  0  0  0  0  0  0  0  0  0  0
  198.3577  181.9822  155.2393 H   0  0  0  0  0  0  0  0  0  0  0  0
  1  2  1  0
  1 25  1  0
  2  3  2  0
  2  9  1  0
  3  4  1  0
  3  6  1  0
  4  5  1  0
  5 33  1  0
  5 34  1  0
  5 35  1  0
  6  7  2  0
  6 36  1  0
  7  8  1  0
  7 11  1  0
  8  9  2  0
  8 37  1  0
  9 10  1  0
 10 38  1  0
 11 12  1  0
 11 39  1  0
 11 40  1  0
 12 13  1  0
 12 32  1  0
 12 65  1  0
 13 14  1  0
 13 41  1  0
 13 42  1  0
 14 15  1  0
 14 21  1  0
 14 43  1  6
 15 16  2  0
 15 20  1  0
 16 17  1  0
 16 44  1  0
 17 18  2  0
 17 45  1  0
 18 19  1  0
 18 46  1  0
 19 20  2  0
 19 47  1  0
 20 48  1  0
 21 22  1  0
 21 49  1  0
 21 50  1  0
 22 23  1  0
 22 24  1  0
 22 64  1  0
 23 51  1  0
 23 52  1  0
 23 53  1  0
 24 54  1  0
 24 55  1  0
 24 56  1  0
 25 26  1  0
 25 57  1  0
 25 58  1  0
 26 27  2  0
 26 31  1  0
 27 28  1  0
 27 59  1  0
 28 29  2  0
 28 60  1  0
 29 30  1  0
 29 61  1  0
 30 31  2  0
 30 62  1  0
 31 63  1  0
M  CHG  2  12   1  22   1
M  END
>  <s_epik_cmdline>  (8) 
J2VwaWtfcHl0aG9uJywgJy1waCcsICc3LjAwMDAwMCcsICctcGh0JywgJzIuMDAwMDAwJywgJy1tcycsICcxNicsICctdG4nLCAnOCcsICctbWEnLCAnMjAwJywgJy1pbWFlJywgJzxpbmZpbGUubWFlPicsICctb21hZScsICc8b3V0ZmlsZS5tYWU+Jw==

>  <s_epik_input>  (8) 
W2NIXTFbY0hdW2NIXVtjSF1bY0hdYzFbQ0gyXU9jMmMoT1tDSDNdKVtjSF1jKFtjSF1jMltPSF0pW0NIMl1bTkhdW0NIMl1bQ0BASF0oW0NIMl1OKFtDSDNdKVtDSDNdKWMzW2NIXVtjSF1bY0hdW2NIXVtjSF0z

>  <s_i_glide_gridfile>  (8) 
ATP-Grid

>  <s_lp_Force_Field>  (8) 
OPLS_2005

>  <s_lp_Variant>  (8) 
m_270004bbb____23846038____24720040-2

>  <s_lp_label>  (8) 
1392_sdstereoexpander_2_neutralizer_1_epik_1_stereoizer_1

>  <s_m_source_file>  (8) 
ATP-VSW-LIGPREP-003-in.maegz

>  <s_sd_BIOSOLVEIT.INFINISEE\_QUERY\_NAME>  (8) 
Ref-Lig

>  <s_sd_BIOSOLVEIT.INFINISEE\_QUERY\_SMILES>  (8) 
S(c1nc2c(cc1C[NH2+]Cc3ccc(cc3)C[NH+](C)C)cccc2)Cc4ccccc4

>  <s_sd_BIOSOLVEIT.INFINISEE\_REACTION\_NAME>  (8) 
m_270004bbb

>  <s_sd_BIOSOLVEIT.INFINISEE\_REAGENT1\_SMILES>  (8) 
[R1*]NCC(c1ccccc1)CN(C)C

>  <s_sd_BIOSOLVEIT.INFINISEE\_REAGENT2\_SMILES>  (8) 
[R1*]Cc1cc(OC)c(OCc2ccccc2)c(O)c1

>  <s_sd_BIOSOLVEIT.INFINISEE\_SPACE>  (8) 
REALSpace_44bn_2023-08

>  <s_vsw_compound_code>  (8) 
44515

>  <s_vsw_variant>  (8) 
44515-2

>  <r_epik_Charging_Adjusted_Penalty>  (8) 
0.256652342076165

>  <r_epik_Ionization_Penalty>  (8) 
0.1346

>  <r_epik_Ionization_Penalty_Charging>  (8) 
0.1303

>  <r_epik_Ionization_Penalty_Neutral>  (8) 
0.0043

>  <r_epik_State_Penalty>  (8) 
0.1263

>  <r_i_docking_score>  (8) 
-3.6833127918706401

>  <r_i_glide_ecoul>  (8) 
-11.6913795471191

>  <r_i_glide_eff_state_penalty>  (8) 
0.1263

>  <r_i_glide_einternal>  (8) 
10.402651786804199

>  <r_i_glide_emodel>  (8) 
-40.227977949585302

>  <r_i_glide_energy>  (8) 
-30.9432163238525

>  <r_i_glide_erotb>  (8) 
0.887629996993056

>  <r_i_glide_esite>  (8) 
-0.125031042327065

>  <r_i_glide_evdw>  (8) 
-19.251836776733398

>  <r_i_glide_gscore>  (8) 
-3.8096127918706402

>  <r_i_glide_hbond>  (8) 
-0.162600992534948

>  <r_i_glide_ligand_efficiency>  (8) 
-0.118816541673246

>  <r_i_glide_ligand_efficiency_ln>  (8) 
-0.83069991454752601

>  <r_i_glide_ligand_efficiency_sa>  (8) 
-0.373247984769149

>  <r_i_glide_lipo>  (8) 
-0.71531034673350102

>  <r_i_glide_metal>  (8) 
-0

>  <r_i_glide_rewards>  (8) 
-0.97800163636363502

>  <r_lp_Energy>  (8) 
43.467818000000001

>  <r_lp_tautomer_probability>  (8) 
0.99999999996300004

>  <r_qp_ACxDN^.5/SA>  (8) 
0.0100471

>  <r_qp_CIQPlogS>  (8) 
-4.3819999999999997

>  <r_qp_EA(eV)>  (8) 
0.17499999999999999

>  <r_qp_FISA>  (8) 
49.006999999999998

>  <r_qp_FOSA>  (8) 
338.44

>  <r_qp_IP(eV)>  (8) 
9.0289999999999999

>  <r_qp_Jm>  (8) 
0.0023009852817455901

>  <r_qp_PISA>  (8) 
421.91399999999999

>  <r_qp_PSA>  (8) 
53.009

>  <r_qp_PercentHumanOralAbsorption>  (8) 
100

>  <r_qp_QPPCaco>  (8) 
211.33199999999999

>  <r_qp_QPPMDCK>  (8) 
112.84399999999999

>  <r_qp_QPlogBB>  (8) 
0.083000000000000004

>  <r_qp_QPlogHERG>  (8) 
-8.7560000000000002

>  <r_qp_QPlogKhsa>  (8) 
0.86399999999999999

>  <r_qp_QPlogKp>  (8) 
-3.9100000000000001

>  <r_qp_QPlogPC16>  (8) 
15.731999999999999

>  <r_qp_QPlogPo/w>  (8) 
4.9409999999999998

>  <r_qp_QPlogPoct>  (8) 
21.693999999999999

>  <r_qp_QPlogPw>  (8) 
10.816000000000001

>  <r_qp_QPlogS>  (8) 
-4.3520000000000003

>  <r_qp_QPpolrz>  (8) 
48.444000000000003

>  <r_qp_SASA>  (8) 
809.36099999999999

>  <r_qp_SAamideO>  (8) 
0

>  <r_qp_SAfluorine>  (8) 
0

>  <r_qp_WPSA>  (8) 
0

>  <r_qp_accptHB>  (8) 
5.75

>  <r_qp_dip^2/V>  (8) 
0.0061380999999999996

>  <r_qp_dipole>  (8) 
2.9900000000000002

>  <r_qp_donorHB>  (8) 
2

>  <r_qp_glob>  (8) 
0.7676328

>  <r_qp_mol_MW>  (8) 
420.55000000000001

>  <r_qp_volume>  (8) 
1456.117

>  <r_sd_BIOSOLVEIT.INFINISEE\_FTREES\_SIMILARITY>  (8) 
0.90900000000000003

>  <r_sd_BIOSOLVEIT.LOGP>  (8) 
1.9715

>  <r_sd_BIOSOLVEIT.MOLECULAR\_WEIGHT>  (8) 
422.56599999999997

>  <r_sd_BIOSOLVEIT.TPSA>  (8) 
59.740000000000002

>  <i_epik_Tot_Q>  (8) 
2

>  <i_epik_Tot_abs_Q>  (8) 
2

>  <i_f3d_flags>  (8) 
0

>  <i_i_glide_confnum>  (8) 
4

>  <i_i_glide_lignum>  (8) 
538

>  <i_i_glide_posenum>  (8) 
7

>  <i_i_glide_rotatable_bonds>  (8) 
12

>  <i_lp_mmshare_version>  (8) 
65135

>  <i_m_ct_format>  (8) 
2

>  <i_m_source_file_index>  (8) 
1392

>  <i_qp_#NandO>  (8) 
5

>  <i_qp_#acid>  (8) 
0

>  <i_qp_#amide>  (8) 
0

>  <i_qp_#amidine>  (8) 
0

>  <i_qp_#amine>  (8) 
2

>  <i_qp_#in34>  (8) 
0

>  <i_qp_#in56>  (8) 
18

>  <i_qp_#metab>  (8) 
9

>  <i_qp_#nonHatm>  (8) 
31

>  <i_qp_#noncon>  (8) 
0

>  <i_qp_#ringatoms>  (8) 
18

>  <i_qp_#rotor>  (8) 
12

>  <i_qp_#rtvFG>  (8) 
0

>  <i_qp_#stars>  (8) 
1

>  <i_qp_CNS>  (8) 
1

>  <i_qp_HumanOralAbsorption>  (8) 
3

>  <i_qp_RuleOfFive>  (8) 
0

>  <i_qp_RuleOfThree>  (8) 
1

>  <i_sd_BIOSOLVEIT.INFINISEE\_REAGENT1\_NAME>  (8) 
23846038

>  <i_sd_BIOSOLVEIT.INFINISEE\_REAGENT2\_NAME>  (8) 
24720040

>  <i_sd_BIOSOLVEIT.INFINISEE\_RESULT\_RANK>  (8) 
52148

>  <i_sd_version>  (8) 
0

>  <b_lp_Chiralities_Consistent>  (8) 
1

>  <b_sd_chiral_flag>  (8) 
0

>  <canonical_id>  (8) 
ATP-HTVS-1C066C79A7D0

>  <compound_code>  (8) 
44515

>  <title>  (8) 
m_270004bbb____23846038____24720040

>  <variant>  (8) 
44515-2

>  <source_file>  (8) 
运行/运行/ATP-VSW/ATP-VSW-DOCK_HTVS_1-003_lib/ATP-VSW-DOCK_HTVS_1-003_lib.mae

>  <canonical_smiles>  (8) 
COc1cc(C[NH2+]C[C@@H](C[NH+](C)C)c2ccccc2)cc(O)c1OCc1ccccc1

>  <scaffold>  (8) 
c1ccc(CC[NH2+]Cc2ccc(OCc3ccccc3)cc2)cc1

>  <molecular_formula>  (8) 
C26H34N2O3+2

>  <acquisition_id_v2>  (8) 
ATP-ACQ2-0008

>  <selection_arm_v2>  (8) 
local_structure_bridge

>  <priority_v2>  (8) 
P0

$$$$
ATP-ACQ2-0009
     RDKit          3D

 46 49  0  0  0  0  0  0  0  0999 V2000
  196.0142  184.5498  160.5342 F   0  0  0  0  0  0  0  0  0  0  0  0
  196.3677  183.8020  159.4640 C   0  0  0  0  0  0  0  0  0  0  0  0
  195.3975  183.0100  158.8250 C   0  0  0  0  0  0  0  0  0  0  0  0
  195.7574  182.2328  157.7111 C   0  0  0  0  0  0  0  0  0  0  0  0
  197.0749  182.2580  157.2082 C   0  0  0  0  0  0  0  0  0  0  0  0
  198.0463  183.0588  157.8499 C   0  0  0  0  0  0  0  0  0  0  0  0
  197.6946  183.8282  158.9791 C   0  0  0  0  0  0  0  0  0  0  0  0
  197.3762  181.4223  156.0407 C   0  0  0  0  0  0  0  0  0  0  0  0
  198.6039  181.1271  155.5763 C   0  0  0  0  0  0  0  0  0  0  0  0
  198.8277  180.3769  154.4008 N   0  0  0  0  0  0  0  0  0  0  0  0
  197.9837  180.2912  153.2807 C   0  0  0  0  0  0  0  0  0  0  0  0
  198.6827  179.4723  152.3553 C   0  0  0  0  0  0  0  0  0  0  0  0
  199.9350  179.1318  152.8530 N   0  0  0  0  0  0  0  0  0  0  0  0
  199.9200  179.6366  154.0890 C   0  0  0  0  0  0  0  0  0  0  0  0
  201.0506  179.3666  155.0505 C   0  0  0  0  0  0  0  0  0  0  0  0
  200.7249  178.2386  156.0347 C   0  0  0  0  0  0  0  0  0  0  0  0
  200.2194  178.5754  157.1493 N   0  0  0  0  0  0  0  0  0  0  0  0
  199.9368  177.4358  157.9749 O   0  0  0  0  0  0  0  0  0  0  0  0
  201.1324  176.8525  155.6288 C   0  0  0  0  0  0  0  0  0  0  0  0
  201.9428  176.0619  156.4919 C   0  0  0  0  0  0  0  0  0  0  0  0
  202.3516  174.7566  156.1211 C   0  0  0  0  0  0  0  0  0  0  0  0
  201.9572  174.2233  154.8820 C   0  0  0  0  0  0  0  0  0  0  0  0
  201.1648  175.0001  154.0161 C   0  0  0  0  0  0  0  0  0  0  0  0
  200.7492  176.2859  154.4038 C   0  0  0  0  0  0  0  0  0  0  0  0
  198.0950  179.1291  151.1179 C   0  0  0  0  0  0  0  0  0  0  0  0
  196.8313  179.6486  150.7717 C   0  0  0  0  0  0  0  0  0  0  0  0
  196.1604  180.5029  151.6662 C   0  0  0  0  0  0  0  0  0  0  0  0
  196.7367  180.8461  152.9047 C   0  0  0  0  0  0  0  0  0  0  0  0
  194.3804  182.9796  159.1840 H   0  0  0  0  0  0  0  0  0  0  0  0
  195.0133  181.6318  157.2159 H   0  0  0  0  0  0  0  0  0  0  0  0
  199.0633  183.0966  157.4895 H   0  0  0  0  0  0  0  0  0  0  0  0
  198.4375  184.4354  159.4802 H   0  0  0  0  0  0  0  0  0  0  0  0
  196.4974  181.0205  155.5637 H   0  0  0  0  0  0  0  0  0  0  0  0
  199.5081  181.4274  156.0737 H   0  0  0  0  0  0  0  0  0  0  0  0
  201.9411  179.1007  154.4866 H   0  0  0  0  0  0  0  0  0  0  0  0
  201.3107  180.2790  155.5952 H   0  0  0  0  0  0  0  0  0  0  0  0
  198.9960  177.5122  158.1155 H   0  0  0  0  0  0  0  0  0  0  0  0
  202.2566  176.4746  157.4246 H   0  0  0  0  0  0  0  0  0  0  0  0
  202.9529  174.1728  156.8112 H   0  0  0  0  0  0  0  0  0  0  0  0
  202.2451  173.2141  154.5991 H   0  0  0  0  0  0  0  0  0  0  0  0
  200.8544  174.6123  153.0592 H   0  0  0  0  0  0  0  0  0  0  0  0
  200.1005  176.8063  153.7152 H   0  0  0  0  0  0  0  0  0  0  0  0
  198.6260  178.4852  150.4276 H   0  0  0  0  0  0  0  0  0  0  0  0
  196.3943  179.4279  149.8075 H   0  0  0  0  0  0  0  0  0  0  0  0
  195.2092  180.9303  151.3946 H   0  0  0  0  0  0  0  0  0  0  0  0
  196.1980  181.5501  153.5157 H   0  0  0  0  0  0  0  0  0  0  0  0
  1  2  1  0
  2  3  1  0
  2  7  2  0
  3  4  2  0
  3 29  1  0
  4  5  1  0
  4 30  1  0
  5  6  2  0
  5  8  1  0
  6  7  1  0
  6 31  1  0
  7 32  1  0
  8  9  2  0
  8 33  1  0
  9 10  1  0
  9 34  1  0
 10 11  1  0
 10 14  1  0
 11 12  1  0
 11 28  2  0
 12 13  1  0
 12 25  2  0
 13 14  2  0
 14 15  1  0
 15 16  1  0
 15 35  1  0
 15 36  1  0
 16 17  2  0
 16 19  1  0
 17 18  1  0
 18 37  1  0
 19 20  2  0
 19 24  1  0
 20 21  1  0
 20 38  1  0
 21 22  2  0
 21 39  1  0
 22 23  1  0
 22 40  1  0
 23 24  2  0
 23 41  1  0
 24 42  1  0
 25 26  1  0
 25 43  1  0
 26 27  2  0
 26 44  1  0
 27 28  1  0
 27 45  1  0
 28 46  1  0
M  END
>  <s_epik_Chemistry_Notes>  (9) 
This compound has an imine and may undergo hydrolysis.

>  <s_epik_cmdline>  (9) 
J2VwaWtfcHl0aG9uJywgJy1waCcsICc3LjAwMDAwMCcsICctcGh0JywgJzIuMDAwMDAwJywgJy1tcycsICcxNicsICctdG4nLCAnOCcsICctbWEnLCAnMjAwJywgJy1pbWFlJywgJzxpbmZpbGUubWFlPicsICctb21hZScsICc8b3V0ZmlsZS5tYWU+Jw==

>  <s_epik_input>  (9) 
RmMxW2NIXVtjSF1jKFtjSF1bY0hdMSkvW0NIXT1bQ0hdL24yYyhuYyhjMjMpW2NIXVtjSF1bY0hdW2NIXTMpW0NIMl0vQyg9Ti9bT0hdKWM0W2NIXVtjSF1bY0hdW2NIXVtjSF00

>  <s_i_glide_gridfile>  (9) 
ATP-Grid

>  <s_lp_Force_Field>  (9) 
OPLS_2005

>  <s_lp_Variant>  (9) 
N-ArylationHeterocycle____206845508____45772004-1

>  <s_lp_label>  (9) 
653_sdstereoexpander_1_neutralizer_1_epik_1_stereoizer_1

>  <s_m_source_file>  (9) 
ATP-VSW-LIGPREP-001-in.maegz

>  <s_sd_BIOSOLVEIT.INFINISEE\_QUERY\_NAME>  (9) 
Ref-Lig

>  <s_sd_BIOSOLVEIT.INFINISEE\_QUERY\_SMILES>  (9) 
S(c1nc2c(cc1C[NH2+]Cc3ccc(cc3)C[NH+](C)C)cccc2)Cc4ccccc4

>  <s_sd_BIOSOLVEIT.INFINISEE\_REACTION\_NAME>  (9) 
N-ArylationHeterocycle

>  <s_sd_BIOSOLVEIT.INFINISEE\_REAGENT1\_SMILES>  (9) 
Fc1ccc(cc1)C=CB(O)O

>  <s_sd_BIOSOLVEIT.INFINISEE\_REAGENT2\_SMILES>  (9) 
ON=C(c1ccccc1)CC2=Nc3c(N2)cccc3

>  <s_sd_BIOSOLVEIT.INFINISEE\_SPACE>  (9) 
KnowledgeSpace_290tr_2019-05

>  <s_vsw_compound_code>  (9) 
20865

>  <s_vsw_variant>  (9) 
20865-1

>  <r_epik_Charging_Adjusted_Penalty>  (9) 
0.0449472433815837

>  <r_epik_Ionization_Penalty>  (9) 
0.045100000000000001

>  <r_epik_Ionization_Penalty_Charging>  (9) 
0

>  <r_epik_Ionization_Penalty_Neutral>  (9) 
0.045100000000000001

>  <r_epik_State_Penalty>  (9) 
0.044900000000000002

>  <r_i_docking_score>  (9) 
-4.8735530465891799

>  <r_i_glide_ecoul>  (9) 
-8.2591476440429705

>  <r_i_glide_eff_state_penalty>  (9) 
0.044900000000000002

>  <r_i_glide_einternal>  (9) 
3.2151002883911102

>  <r_i_glide_emodel>  (9) 
-51.126114169490499

>  <r_i_glide_energy>  (9) 
-40.057785034179702

>  <r_i_glide_erotb>  (9) 
0.83959797768802502

>  <r_i_glide_esite>  (9) 
-0.181903373570174

>  <r_i_glide_evdw>  (9) 
-31.798637390136701

>  <r_i_glide_gscore>  (9) 
-4.91845304658918

>  <r_i_glide_hbond>  (9) 
-0.16

>  <r_i_glide_ligand_efficiency>  (9) 
-0.17405546594961399

>  <r_i_glide_ligand_efficiency_ln>  (9) 
-1.1249591368880401

>  <r_i_glide_ligand_efficiency_sa>  (9) 
-0.52853490781021495

>  <r_i_glide_lipo>  (9) 
-1.5649506017919601

>  <r_i_glide_metal>  (9) 
-0

>  <r_i_glide_rewards>  (9) 
-1.0223930328018001

>  <r_lp_Energy>  (9) 
29.508853999999999

>  <r_qp_ACxDN^.5/SA>  (9) 
0.0069026000000000001

>  <r_qp_CIQPlogS>  (9) 
-6.343

>  <r_qp_EA(eV)>  (9) 
1.0669999999999999

>  <r_qp_FISA>  (9) 
90.319999999999993

>  <r_qp_FOSA>  (9) 
41.332000000000001

>  <r_qp_IP(eV)>  (9) 
8.5879999999999992

>  <r_qp_Jm>  (9) 
0.467123459939288

>  <r_qp_PISA>  (9) 
429.76999999999998

>  <r_qp_PSA>  (9) 
53.423999999999999

>  <r_qp_PercentHumanOralAbsorption>  (9) 
100

>  <r_qp_QPPCaco>  (9) 
1378.453

>  <r_qp_QPPMDCK>  (9) 
1266.825

>  <r_qp_QPlogBB>  (9) 
-0.55400000000000005

>  <r_qp_QPlogHERG>  (9) 
-5.819

>  <r_qp_QPlogKhsa>  (9) 
0.58899999999999997

>  <r_qp_QPlogKp>  (9) 
-0.998

>  <r_qp_QPlogPC16>  (9) 
12.332000000000001

>  <r_qp_QPlogPo/w>  (9) 
4.6779999999999999

>  <r_qp_QPlogPoct>  (9) 
16.899999999999999

>  <r_qp_QPlogPw>  (9) 
8.7949999999999999

>  <r_qp_QPlogS>  (9) 
-4.9020000000000001

>  <r_qp_QPpolrz>  (9) 
38.633000000000003

>  <r_qp_SASA>  (9) 
608.46500000000003

>  <r_qp_SAamideO>  (9) 
0

>  <r_qp_SAfluorine>  (9) 
47.042999999999999

>  <r_qp_WPSA>  (9) 
47.042999999999999

>  <r_qp_accptHB>  (9) 
4.2000000000000002

>  <r_qp_dip^2/V>  (9) 
0.0076536

>  <r_qp_dipole>  (9) 
2.9390000000000001

>  <r_qp_donorHB>  (9) 
1

>  <r_qp_glob>  (9) 
0.86171129999999996

>  <r_qp_mol_MW>  (9) 
371.41300000000001

>  <r_qp_volume>  (9) 
1128.883

>  <r_sd_BIOSOLVEIT.INFINISEE\_FTREES\_SIMILARITY>  (9) 
0.90400000000000003

>  <r_sd_BIOSOLVEIT.LOGP>  (9) 
5.2243000000000004

>  <r_sd_BIOSOLVEIT.MOLECULAR\_WEIGHT>  (9) 
371.41300000000001

>  <r_sd_BIOSOLVEIT.TPSA>  (9) 
50.409999999999997

>  <i_epik_Tot_Q>  (9) 
0

>  <i_epik_Tot_abs_Q>  (9) 
0

>  <i_f3d_flags>  (9) 
0

>  <i_i_glide_confnum>  (9) 
6

>  <i_i_glide_lignum>  (9) 
90

>  <i_i_glide_posenum>  (9) 
18

>  <i_i_glide_rotatable_bonds>  (9) 
6

>  <i_lp_mmshare_version>  (9) 
65135

>  <i_m_ct_format>  (9) 
2

>  <i_m_source_file_index>  (9) 
653

>  <i_qp_#NandO>  (9) 
4

>  <i_qp_#acid>  (9) 
0

>  <i_qp_#amide>  (9) 
0

>  <i_qp_#amidine>  (9) 
0

>  <i_qp_#amine>  (9) 
0

>  <i_qp_#in34>  (9) 
0

>  <i_qp_#in56>  (9) 
21

>  <i_qp_#metab>  (9) 
1

>  <i_qp_#nonHatm>  (9) 
28

>  <i_qp_#noncon>  (9) 
0

>  <i_qp_#ringatoms>  (9) 
21

>  <i_qp_#rotor>  (9) 
7

>  <i_qp_#rtvFG>  (9) 
0

>  <i_qp_#stars>  (9) 
0

>  <i_qp_CNS>  (9) 
0

>  <i_qp_HumanOralAbsorption>  (9) 
3

>  <i_qp_RuleOfFive>  (9) 
0

>  <i_qp_RuleOfThree>  (9) 
0

>  <i_sd_BIOSOLVEIT.INFINISEE\_REAGENT1\_NAME>  (9) 
206845508

>  <i_sd_BIOSOLVEIT.INFINISEE\_REAGENT2\_NAME>  (9) 
45772004

>  <i_sd_BIOSOLVEIT.INFINISEE\_RESULT\_RANK>  (9) 
77504

>  <i_sd_version>  (9) 
0

>  <b_lp_Chiralities_Consistent>  (9) 
1

>  <b_sd_chiral_flag>  (9) 
0

>  <canonical_id>  (9) 
ATP-HTVS-84C0F320BB18

>  <compound_code>  (9) 
20865

>  <title>  (9) 
N-ArylationHeterocycle____206845508____45772004

>  <variant>  (9) 
20865-1

>  <source_file>  (9) 
运行/运行/ATP-VSW/ATP-VSW-DOCK_HTVS_1-001_lib/ATP-VSW-DOCK_HTVS_1-001_lib

>  <canonical_smiles>  (9) 
O/N=C(/Cc1nc2ccccc2n1/C=C/c1ccc(F)cc1)c1ccccc1

>  <scaffold>  (9) 
N=C(Cc1nc2ccccc2n1C=Cc1ccccc1)c1ccccc1

>  <molecular_formula>  (9) 
C23H18FN3O

>  <acquisition_id_v2>  (9) 
ATP-ACQ2-0009

>  <selection_arm_v2>  (9) 
scaffold_score_exploration

>  <priority_v2>  (9) 
P0

$$$$
ATP-ACQ2-0010
     RDKit          3D

 53 55  0  0  0  0  0  0  0  0999 V2000
  198.4147  185.3984  147.0090 Br  0  0  0  0  0  0  0  0  0  0  0  0
  197.9063  184.1274  148.3282 C   0  0  0  0  0  0  0  0  0  0  0  0
  196.7843  184.3670  149.1511 C   0  0  0  0  0  0  0  0  0  0  0  0
  196.3964  183.4158  150.1121 C   0  0  0  0  0  0  0  0  0  0  0  0
  197.1528  182.2330  150.2814 C   0  0  0  0  0  0  0  0  0  0  0  0
  196.7957  181.2972  151.2115 O   0  0  0  0  0  0  0  0  0  0  0  0
  196.9146  181.5832  152.5511 C   0  0  0  0  0  0  0  0  0  0  0  0
  196.7502  180.5054  153.3510 N   0  0  0  0  0  0  0  0  0  0  0  0
  196.7950  180.6792  154.6864 C   0  0  0  0  0  0  0  0  0  0  0  0
  196.9925  181.9404  155.2808 C   0  0  0  0  0  0  0  0  0  0  0  0
  197.1611  183.0630  154.4521 C   0  0  0  0  0  0  0  0  0  0  0  0
  197.1519  182.8851  153.0644 C   0  0  0  0  0  0  0  0  0  0  0  0
  197.0437  182.1022  156.7755 C   0  0  0  0  0  0  0  0  0  0  0  0
  195.7359  181.8361  157.4119 N   0  0  0  0  0  0  0  0  0  0  0  0
  195.7299  182.0049  158.8813 C   0  0  0  0  0  0  0  0  0  0  0  0
  195.9670  183.4473  159.3055 C   0  0  0  0  0  0  0  0  0  0  0  0
  197.2840  183.9448  159.4211 C   0  0  0  0  0  0  0  0  0  0  0  0
  197.5012  185.2978  159.7328 C   0  0  0  0  0  0  0  0  0  0  0  0
  196.4089  186.1577  159.9870 C   0  0  0  0  0  0  0  0  0  0  0  0
  195.0994  185.6472  159.9180 C   0  0  0  0  0  0  0  0  0  0  0  0
  194.8757  184.3004  159.5659 C   0  0  0  0  0  0  0  0  0  0  0  0
  196.6528  187.6231  160.3255 C   0  0  0  0  0  0  0  0  0  0  0  0
  196.7473  188.4994  159.1267 N   0  0  0  0  0  0  0  0  0  0  0  0
  196.7964  189.9281  159.5083 C   0  0  0  0  0  0  0  0  0  0  0  0
  197.8522  188.1510  158.1966 C   0  0  0  0  0  0  0  0  0  0  0  0
  198.2725  181.9976  149.4575 C   0  0  0  0  0  0  0  0  0  0  0  0
  198.6504  182.9451  148.4887 C   0  0  0  0  0  0  0  0  0  0  0  0
  194.9987  182.3614  156.9605 H   0  0  0  0  0  0  0  0  0  0  0  0
  196.2161  185.2770  149.0282 H   0  0  0  0  0  0  0  0  0  0  0  0
  195.5205  183.5827  150.7204 H   0  0  0  0  0  0  0  0  0  0  0  0
  196.6633  179.8025  155.3069 H   0  0  0  0  0  0  0  0  0  0  0  0
  197.3029  184.0533  154.8626 H   0  0  0  0  0  0  0  0  0  0  0  0
  197.2848  183.7625  152.4526 H   0  0  0  0  0  0  0  0  0  0  0  0
  197.8084  181.4402  157.1854 H   0  0  0  0  0  0  0  0  0  0  0  0
  197.3612  183.1317  156.9508 H   0  0  0  0  0  0  0  0  0  0  0  0
  194.7677  181.6530  159.2595 H   0  0  0  0  0  0  0  0  0  0  0  0
  196.4857  181.3519  159.3244 H   0  0  0  0  0  0  0  0  0  0  0  0
  198.1334  183.3058  159.2358 H   0  0  0  0  0  0  0  0  0  0  0  0
  198.5126  185.6730  159.7814 H   0  0  0  0  0  0  0  0  0  0  0  0
  194.2506  186.2871  160.1042 H   0  0  0  0  0  0  0  0  0  0  0  0
  193.8607  183.9364  159.4747 H   0  0  0  0  0  0  0  0  0  0  0  0
  195.8332  187.9688  160.9575 H   0  0  0  0  0  0  0  0  0  0  0  0
  197.5471  187.7220  160.9314 H   0  0  0  0  0  0  0  0  0  0  0  0
  197.6970  190.1499  160.0854 H   0  0  0  0  0  0  0  0  0  0  0  0
  195.9318  190.1996  160.1172 H   0  0  0  0  0  0  0  0  0  0  0  0
  196.7905  190.5669  158.6233 H   0  0  0  0  0  0  0  0  0  0  0  0
  198.8178  188.2041  158.7018 H   0  0  0  0  0  0  0  0  0  0  0  0
  197.8778  188.8357  157.3460 H   0  0  0  0  0  0  0  0  0  0  0  0
  197.7338  187.1492  157.7846 H   0  0  0  0  0  0  0  0  0  0  0  0
  198.8463  181.0854  149.5741 H   0  0  0  0  0  0  0  0  0  0  0  0
  199.5165  182.7634  147.8663 H   0  0  0  0  0  0  0  0  0  0  0  0
  195.8869  188.3736  158.6140 H   0  0  0  0  0  0  0  0  0  0  0  0
  195.5411  180.8386  157.2879 H   0  0  0  0  0  0  0  0  0  0  0  0
  1  2  1  0
  2  3  1  0
  2 27  2  0
  3  4  2  0
  3 29  1  0
  4  5  1  0
  4 30  1  0
  5  6  1  0
  5 26  2  0
  6  7  1  0
  7  8  1  0
  7 12  2  0
  8  9  2  0
  9 10  1  0
  9 31  1  0
 10 11  2  0
 10 13  1  0
 11 12  1  0
 11 32  1  0
 12 33  1  0
 13 14  1  0
 13 34  1  0
 13 35  1  0
 14 15  1  0
 14 28  1  0
 14 53  1  0
 15 16  1  0
 15 36  1  0
 15 37  1  0
 16 17  1  0
 16 21  2  0
 17 18  2  0
 17 38  1  0
 18 19  1  0
 18 39  1  0
 19 20  2  0
 19 22  1  0
 20 21  1  0
 20 40  1  0
 21 41  1  0
 22 23  1  0
 22 42  1  0
 22 43  1  0
 23 24  1  0
 23 25  1  0
 23 52  1  0
 24 44  1  0
 24 45  1  0
 24 46  1  0
 25 47  1  0
 25 48  1  0
 25 49  1  0
 26 27  1  0
 26 50  1  0
 27 51  1  0
M  CHG  2  14   1  23   1
M  END
>  <s_epik_cmdline>  (10) 
J2VwaWtfcHl0aG9uJywgJy1waCcsICc3LjAwMDAwMCcsICctcGh0JywgJzIuMDAwMDAwJywgJy1tcycsICcxNicsICctdG4nLCAnOCcsICctbWEnLCAnMjAwJywgJy1pbWFlJywgJzxpbmZpbGUubWFlPicsICctb21hZScsICc8b3V0ZmlsZS5tYWU+Jw==

>  <s_epik_input>  (10) 
QnJjMVtjSF1bY0hdYyhbY0hdW2NIXTEpT2MybltjSF1jKFtjSF1bY0hdMilbQ0gyXVtOSF1bQ0gyXWMzW2NIXVtjSF1jKFtjSF1bY0hdMylbQ0gyXU4oW0NIM10pW0NIM10=

>  <s_i_glide_gridfile>  (10) 
ATP-Grid

>  <s_lp_Force_Field>  (10) 
OPLS_2005

>  <s_lp_Variant>  (10) 
m_270004bbb____8288884____20640242-1

>  <s_lp_label>  (10) 
1197_sdstereoexpander_1_neutralizer_1_epik_1_stereoizer_1

>  <s_m_source_file>  (10) 
ATP-VSW-LIGPREP-002-in.maegz

>  <s_sd_BIOSOLVEIT.INFINISEE\_QUERY\_NAME>  (10) 
Ref-Lig

>  <s_sd_BIOSOLVEIT.INFINISEE\_QUERY\_SMILES>  (10) 
S(c1nc2c(cc1C[NH2+]Cc3ccc(cc3)C[NH+](C)C)cccc2)Cc4ccccc4

>  <s_sd_BIOSOLVEIT.INFINISEE\_REACTION\_NAME>  (10) 
m_270004bbb

>  <s_sd_BIOSOLVEIT.INFINISEE\_REAGENT1\_SMILES>  (10) 
[R1*]NCc1ccc(cc1)CN(C)C

>  <s_sd_BIOSOLVEIT.INFINISEE\_REAGENT2\_SMILES>  (10) 
[R1*]Cc1cnc(Oc2ccc(Br)cc2)cc1

>  <s_sd_BIOSOLVEIT.INFINISEE\_SPACE>  (10) 
REALSpace_44bn_2023-08

>  <s_vsw_compound_code>  (10) 
38274

>  <s_vsw_variant>  (10) 
38274-1

>  <r_epik_Charging_Adjusted_Penalty>  (10) 
0.42394423779197299

>  <r_epik_Ionization_Penalty>  (10) 
0.20999999999999999

>  <r_epik_Ionization_Penalty_Charging>  (10) 
0.20999999999999999

>  <r_epik_Ionization_Penalty_Neutral>  (10) 
0

>  <r_epik_State_Penalty>  (10) 
0.214

>  <r_i_docking_score>  (10) 
-6.27229934947262

>  <r_i_glide_ecoul>  (10) 
-12.959820747375501

>  <r_i_glide_eff_state_penalty>  (10) 
0.214

>  <r_i_glide_einternal>  (10) 
2.0179190635681201

>  <r_i_glide_emodel>  (10) 
-79.270718719398204

>  <r_i_glide_energy>  (10) 
-48.894360542297399

>  <r_i_glide_erotb>  (10) 
0.75773174054959602

>  <r_i_glide_esite>  (10) 
-0.10000000000000001

>  <r_i_glide_evdw>  (10) 
-35.934539794921903

>  <r_i_glide_gscore>  (10) 
-6.4862993494726204

>  <r_i_glide_hbond>  (10) 
-0.40000000000000002

>  <r_i_glide_ligand_efficiency>  (10) 
-0.23230738331380099

>  <r_i_glide_ligand_efficiency_ln>  (10) 
-1.4600878816207601

>  <r_i_glide_ligand_efficiency_sa>  (10) 
-0.69692214917575501

>  <r_i_glide_lipo>  (10) 
-2.28991285180616

>  <r_i_glide_metal>  (10) 
-0

>  <r_i_glide_rewards>  (10) 
-0.71341813636363605

>  <r_lp_Energy>  (10) 
17.776261000000002

>  <r_lp_tautomer_probability>  (10) 
1

>  <r_qp_ACxDN^.5/SA>  (10) 
0.0066769000000000004

>  <r_qp_CIQPlogS>  (10) 
-4.8730000000000002

>  <r_qp_EA(eV)>  (10) 
0.435

>  <r_qp_FISA>  (10) 
37.649000000000001

>  <r_qp_FOSA>  (10) 
250.80000000000001

>  <r_qp_IP(eV)>  (10) 
9.0690000000000008

>  <r_qp_Jm>  (10) 
0.00057121106428761903

>  <r_qp_PISA>  (10) 
383.01299999999998

>  <r_qp_PSA>  (10) 
39.448

>  <r_qp_PercentHumanOralAbsorption>  (10) 
100

>  <r_qp_QPPCaco>  (10) 
270.81400000000002

>  <r_qp_QPPMDCK>  (10) 
391.596

>  <r_qp_QPlogBB>  (10) 
0.64500000000000002

>  <r_qp_QPlogHERG>  (10) 
-8.532

>  <r_qp_QPlogKhsa>  (10) 
0.82499999999999996

>  <r_qp_QPlogKp>  (10) 
-4.2210000000000001

>  <r_qp_QPlogPC16>  (10) 
14.208

>  <r_qp_QPlogPo/w>  (10) 
4.7800000000000002

>  <r_qp_QPlogPoct>  (10) 
18.809000000000001

>  <r_qp_QPlogPw>  (10) 
9.0350000000000001

>  <r_qp_QPlogS>  (10) 
-4.6520000000000001

>  <r_qp_QPpolrz>  (10) 
44.472999999999999

>  <r_qp_SASA>  (10) 
748.85199999999998

>  <r_qp_SAamideO>  (10) 
0

>  <r_qp_SAfluorine>  (10) 
0

>  <r_qp_WPSA>  (10) 
77.390000000000001

>  <r_qp_accptHB>  (10) 
5

>  <r_qp_dip^2/V>  (10) 
0.0059160000000000003

>  <r_qp_dipole>  (10) 
2.7749999999999999

>  <r_qp_donorHB>  (10) 
1

>  <r_qp_glob>  (10) 
0.77003739999999998

>  <r_qp_mol_MW>  (10) 
426.35500000000002

>  <r_qp_volume>  (10) 
1302.01

>  <r_sd_BIOSOLVEIT.INFINISEE\_FTREES\_SIMILARITY>  (10) 
0.91100000000000003

>  <r_sd_BIOSOLVEIT.LOGP>  (10) 
2.5445000000000002

>  <r_sd_BIOSOLVEIT.MOLECULAR\_WEIGHT>  (10) 
428.37099999999998

>  <r_sd_BIOSOLVEIT.TPSA>  (10) 
43.170000000000002

>  <i_epik_Tot_Q>  (10) 
2

>  <i_epik_Tot_abs_Q>  (10) 
2

>  <i_f3d_flags>  (10) 
0

>  <i_i_glide_confnum>  (10) 
1

>  <i_i_glide_lignum>  (10) 
413

>  <i_i_glide_posenum>  (10) 
9

>  <i_i_glide_rotatable_bonds>  (10) 
8

>  <i_lp_mmshare_version>  (10) 
65135

>  <i_m_ct_format>  (10) 
2

>  <i_m_source_file_index>  (10) 
1197

>  <i_qp_#NandO>  (10) 
4

>  <i_qp_#acid>  (10) 
0

>  <i_qp_#amide>  (10) 
0

>  <i_qp_#amidine>  (10) 
0

>  <i_qp_#amine>  (10) 
2

>  <i_qp_#in34>  (10) 
0

>  <i_qp_#in56>  (10) 
18

>  <i_qp_#metab>  (10) 
6

>  <i_qp_#nonHatm>  (10) 
27

>  <i_qp_#noncon>  (10) 
0

>  <i_qp_#ringatoms>  (10) 
18

>  <i_qp_#rotor>  (10) 
8

>  <i_qp_#rtvFG>  (10) 
0

>  <i_qp_#stars>  (10) 
0

>  <i_qp_CNS>  (10) 
2

>  <i_qp_HumanOralAbsorption>  (10) 
3

>  <i_qp_RuleOfFive>  (10) 
0

>  <i_qp_RuleOfThree>  (10) 
0

>  <i_sd_BIOSOLVEIT.INFINISEE\_REAGENT1\_NAME>  (10) 
8288884

>  <i_sd_BIOSOLVEIT.INFINISEE\_REAGENT2\_NAME>  (10) 
20640242

>  <i_sd_BIOSOLVEIT.INFINISEE\_RESULT\_RANK>  (10) 
39995

>  <i_sd_version>  (10) 
0

>  <b_lp_Chiralities_Consistent>  (10) 
1

>  <b_sd_chiral_flag>  (10) 
0

>  <canonical_id>  (10) 
ATP-HTVS-6EF9F712D3BB

>  <compound_code>  (10) 
38274

>  <title>  (10) 
m_270004bbb____8288884____20640242

>  <variant>  (10) 
38274-1

>  <source_file>  (10) 
运行/运行/ATP-VSW/ATP-VSW-DOCK_HTVS_1-002_lib.maegz

>  <canonical_smiles>  (10) 
C[NH+](C)Cc1ccc(C[NH2+]Cc2ccc(Oc3ccc(Br)cc3)nc2)cc1

>  <scaffold>  (10) 
c1ccc(C[NH2+]Cc2ccc(Oc3ccccc3)nc2)cc1

>  <molecular_formula>  (10) 
C22H26BrN3O+2

>  <acquisition_id_v2>  (10) 
ATP-ACQ2-0010

>  <selection_arm_v2>  (10) 
exploitation

>  <priority_v2>  (10) 
P0

$$$$
ATP-ACQ2-0011
     RDKit          3D

 59 61  0  0  0  0  0  0  0  0999 V2000
  197.2938  179.5929  149.3376 S   0  0  0  0  0  0  0  0  0  0  0  0
  197.8008  179.1869  150.9525 C   0  0  0  0  0  0  0  0  0  0  0  0
  196.9317  179.6570  152.0630 C   0  0  0  0  0  0  0  0  0  0  0  0
  195.8032  179.1706  152.1282 O   0  0  0  0  0  0  0  0  0  0  0  0
  197.3866  180.5752  152.9575 N   0  0  0  0  0  0  0  0  0  0  0  0
  198.2333  181.6856  152.5901 C   0  0  0  0  0  0  0  0  0  0  0  0
  197.8943  183.0156  152.9682 C   0  0  0  0  0  0  0  0  0  0  0  0
  198.7410  184.0976  152.7348 C   0  0  0  0  0  0  0  0  0  0  0  0
  199.9123  183.9150  151.9791 C   0  0  0  0  0  0  0  0  0  0  0  0
  200.2408  182.6221  151.5248 C   0  0  0  0  0  0  0  0  0  0  0  0
  199.4416  181.5224  151.8712 C   0  0  0  0  0  0  0  0  0  0  0  0
  197.0132  180.3610  154.3737 C   0  0  0  0  0  0  0  0  0  0  0  0
  196.4615  181.5723  155.1109 C   0  0  0  0  0  0  0  0  0  0  0  0
  196.3010  181.3945  156.5689 N   0  0  0  0  0  0  0  0  0  0  0  0
  198.9760  178.4598  150.9450 C   0  0  0  0  0  0  0  0  0  0  0  0
  199.6571  178.0186  152.0963 N   0  0  0  0  0  0  0  0  0  0  0  0
  200.8703  177.2066  152.0680 C   0  0  0  0  0  0  0  0  0  0  0  0
  201.3010  176.6595  153.4202 C   0  0  0  0  0  0  0  0  0  0  0  0
  200.5116  176.8585  154.5544 C   0  0  0  0  0  0  0  0  0  0  0  0
  200.9480  176.4987  155.8495 C   0  0  0  0  0  0  0  0  0  0  0  0
  202.1369  175.7584  155.9774 C   0  0  0  0  0  0  0  0  0  0  0  0
  202.9010  175.4644  154.8244 C   0  0  0  0  0  0  0  0  0  0  0  0
  202.5001  175.9287  153.5509 C   0  0  0  0  0  0  0  0  0  0  0  0
  200.1286  176.8826  157.0793 C   0  0  0  0  0  0  0  0  0  0  0  0
  199.9854  178.3465  157.3192 N   0  0  0  0  0  0  0  0  0  0  0  0
  199.5349  179.1138  156.1659 C   0  0  0  0  0  0  0  0  0  0  0  0
  201.1844  178.9687  157.8968 C   0  0  0  0  0  0  0  0  0  0  0  0
  199.5001  178.2728  149.6348 C   0  0  0  0  0  0  0  0  0  0  0  0
  198.7066  178.8227  148.6646 C   0  0  0  0  0  0  0  0  0  0  0  0
  195.9194  182.2580  156.9364 H   0  0  0  0  0  0  0  0  0  0  0  0
  197.2105  181.2360  156.9574 H   0  0  0  0  0  0  0  0  0  0  0  0
  196.9461  183.2743  153.4357 H   0  0  0  0  0  0  0  0  0  0  0  0
  198.4810  185.0693  153.1061 H   0  0  0  0  0  0  0  0  0  0  0  0
  200.5442  184.7542  151.7232 H   0  0  0  0  0  0  0  0  0  0  0  0
  201.1177  182.4501  150.9011 H   0  0  0  0  0  0  0  0  0  0  0  0
  199.8008  180.5859  151.5332 H   0  0  0  0  0  0  0  0  0  0  0  0
  196.3939  179.4932  154.5488 H   0  0  0  0  0  0  0  0  0  0  0  0
  197.9489  180.1996  154.8082 H   0  0  0  0  0  0  0  0  0  0  0  0
  197.1852  182.3928  155.1848 H   0  0  0  0  0  0  0  0  0  0  0  0
  195.5465  181.9041  154.6443 H   0  0  0  0  0  0  0  0  0  0  0  0
  199.2705  178.2530  152.9979 H   0  0  0  0  0  0  0  0  0  0  0  0
  200.6919  176.3652  151.4043 H   0  0  0  0  0  0  0  0  0  0  0  0
  201.6822  177.8062  151.6500 H   0  0  0  0  0  0  0  0  0  0  0  0
  199.5654  177.3577  154.4274 H   0  0  0  0  0  0  0  0  0  0  0  0
  202.4662  175.4181  156.9450 H   0  0  0  0  0  0  0  0  0  0  0  0
  203.8024  174.8743  154.9204 H   0  0  0  0  0  0  0  0  0  0  0  0
  203.0961  175.7139  152.6787 H   0  0  0  0  0  0  0  0  0  0  0  0
  199.1389  176.4353  156.9760 H   0  0  0  0  0  0  0  0  0  0  0  0
  200.5815  176.4425  157.9717 H   0  0  0  0  0  0  0  0  0  0  0  0
  200.2802  179.1557  155.3654 H   0  0  0  0  0  0  0  0  0  0  0  0
  199.3397  180.1503  156.3992 H   0  0  0  0  0  0  0  0  0  0  0  0
  198.6297  178.6051  155.8269 H   0  0  0  0  0  0  0  0  0  0  0  0
  202.0265  178.8864  157.2041 H   0  0  0  0  0  0  0  0  0  0  0  0
  201.4459  178.4955  158.8448 H   0  0  0  0  0  0  0  0  0  0  0  0
  201.0010  180.0336  158.0781 H   0  0  0  0  0  0  0  0  0  0  0  0
  200.4332  177.7700  149.4509 H   0  0  0  0  0  0  0  0  0  0  0  0
  198.8725  178.8236  147.5978 H   0  0  0  0  0  0  0  0  0  0  0  0
  195.7210  180.5993  156.7801 H   0  0  0  0  0  0  0  0  0  0  0  0
  199.2234  178.4152  157.9848 H   0  0  0  0  0  0  0  0  0  0  0  0
  1  2  1  0
  1 29  1  0
  2  3  1  0
  2 15  2  0
  3  4  2  0
  3  5  1  0
  5  6  1  0
  5 12  1  0
  6  7  2  0
  6 11  1  0
  7  8  1  0
  7 32  1  0
  8  9  2  0
  8 33  1  0
  9 10  1  0
  9 34  1  0
 10 11  2  0
 10 35  1  0
 11 36  1  0
 12 13  1  0
 12 37  1  0
 12 38  1  0
 13 14  1  0
 13 39  1  0
 13 40  1  0
 14 30  1  0
 14 31  1  0
 14 58  1  0
 15 16  1  0
 15 28  1  0
 16 17  1  0
 16 41  1  0
 17 18  1  0
 17 42  1  0
 17 43  1  0
 18 19  2  0
 18 23  1  0
 19 20  1  0
 19 44  1  0
 20 21  2  0
 20 24  1  0
 21 22  1  0
 21 45  1  0
 22 23  2  0
 22 46  1  0
 23 47  1  0
 24 25  1  0
 24 48  1  0
 24 49  1  0
 25 26  1  0
 25 27  1  0
 25 59  1  0
 26 50  1  0
 26 51  1  0
 26 52  1  0
 27 53  1  0
 27 54  1  0
 27 55  1  0
 28 29  2  0
 28 56  1  0
 29 57  1  0
M  CHG  2  14   1  25   1
M  END
>  <s_epik_cmdline>  (11) 
J2VwaWtfcHl0aG9uJywgJy1waCcsICc3LjAwMDAwMCcsICctcGh0JywgJzIuMDAwMDAwJywgJy1tcycsICcxNicsICctdG4nLCAnOCcsICctbWEnLCAnMjAwJywgJy1pbWFlJywgJzxpbmZpbGUubWFlPicsICctb21hZScsICc8b3V0ZmlsZS5tYWU+Jw==

>  <s_epik_input>  (11) 
W2NIXTFbY0hdW2NIXVtjSF1bY0hdYzFOKFtDSDJdW0NIMl1bTkgyXSlDKD1PKWMyc1tjSF1bY0hdYzJbTkhdW0NIMl1jM1tjSF1jKFtjSF1bY0hdW2NIXTMpW0NIMl1OKFtDSDNdKVtDSDNd

>  <s_i_glide_gridfile>  (11) 
ATP-Grid

>  <s_lp_Force_Field>  (11) 
OPLS_2005

>  <s_lp_Variant>  (11) 
rxn512b____EMOL530647____EMOL525138____EMOL2873214-1

>  <s_lp_label>  (11) 
2302_sdstereoexpander_1_neutralizer_1_epik_1_stereoizer_1

>  <s_m_source_file>  (11) 
ATP-VSW-LIGPREP-002-in.maegz

>  <s_sd_BIOSOLVEIT.INFINISEE\_QUERY\_NAME>  (11) 
Ref-Lig

>  <s_sd_BIOSOLVEIT.INFINISEE\_QUERY\_SMILES>  (11) 
S(c1nc2c(cc1C[NH2+]Cc3ccc(cc3)C[NH+](C)C)cccc2)Cc4ccccc4

>  <s_sd_BIOSOLVEIT.INFINISEE\_REACTION\_NAME>  (11) 
rxn512b

>  <s_sd_BIOSOLVEIT.INFINISEE\_REAGENT1\_NAME>  (11) 
EMOL530647

>  <s_sd_BIOSOLVEIT.INFINISEE\_REAGENT1\_SMILES>  (11) 
N(c1ccccc1)CCN

>  <s_sd_BIOSOLVEIT.INFINISEE\_REAGENT2\_NAME>  (11) 
EMOL525138

>  <s_sd_BIOSOLVEIT.INFINISEE\_REAGENT2\_SMILES>  (11) 
BrC1=C(SC=C1)C(=O)O

>  <s_sd_BIOSOLVEIT.INFINISEE\_REAGENT3\_NAME>  (11) 
EMOL2873214

>  <s_sd_BIOSOLVEIT.INFINISEE\_REAGENT3\_SMILES>  (11) 
N(Cc1cc(ccc1)CN)(C)C

>  <s_sd_BIOSOLVEIT.INFINISEE\_SPACE>  (11) 
eXplore_7tr_2022-12

>  <s_vsw_compound_code>  (11) 
73634

>  <s_vsw_variant>  (11) 
73634-1

>  <r_epik_Charging_Adjusted_Penalty>  (11) 
0.097987627613747796

>  <r_epik_Ionization_Penalty>  (11) 
0.049000000000000002

>  <r_epik_Ionization_Penalty_Charging>  (11) 
0.049000000000000002

>  <r_epik_Ionization_Penalty_Neutral>  (11) 
0

>  <r_epik_State_Penalty>  (11) 
0.049000000000000002

>  <r_i_docking_score>  (11) 
-4.8015347346297403

>  <r_i_glide_ecoul>  (11) 
-13.106920242309601

>  <r_i_glide_eff_state_penalty>  (11) 
0.049000000000000002

>  <r_i_glide_einternal>  (11) 
11.4149885177612

>  <r_i_glide_emodel>  (11) 
-58.299537620393302

>  <r_i_glide_energy>  (11) 
-40.061161041259801

>  <r_i_glide_erotb>  (11) 
0.93497750306097305

>  <r_i_glide_esite>  (11) 
-0.19000782168479799

>  <r_i_glide_evdw>  (11) 
-26.954240798950199

>  <r_i_glide_gscore>  (11) 
-4.8505347346297398

>  <r_i_glide_hbond>  (11) 
-0.32255257198711301

>  <r_i_glide_ligand_efficiency>  (11) 
-0.16557016326309401

>  <r_i_glide_ligand_efficiency_ln>  (11) 
-1.09942969781477

>  <r_i_glide_ligand_efficiency_sa>  (11) 
-0.50868399785379503

>  <r_i_glide_lipo>  (11) 
-0.84998633166953097

>  <r_i_glide_metal>  (11) 
-0

>  <r_i_glide_rewards>  (11) 
-1.1092154360553199

>  <r_lp_Energy>  (11) 
40.720495999999997

>  <r_lp_tautomer_probability>  (11) 
0.99999274205267796

>  <r_qp_ACxDN^.5/SA>  (11) 
0.011068700000000001

>  <r_qp_CIQPlogS>  (11) 
-2.9390000000000001

>  <r_qp_EA(eV)>  (11) 
0.312

>  <r_qp_FISA>  (11) 
101.84999999999999

>  <r_qp_FOSA>  (11) 
272.43200000000002

>  <r_qp_IP(eV)>  (11) 
8.1359999999999992

>  <r_qp_Jm>  (11) 
0.0036186793003327102

>  <r_qp_PISA>  (11) 
360.15100000000001

>  <r_qp_PSA>  (11) 
70.537999999999997

>  <r_qp_PercentHumanOralAbsorption>  (11) 
69.045000000000002

>  <r_qp_QPPCaco>  (11) 
16.625

>  <r_qp_QPPMDCK>  (11) 
11.997

>  <r_qp_QPlogBB>  (11) 
-0.28499999999999998

>  <r_qp_QPlogHERG>  (11) 
-9.0190000000000001

>  <r_qp_QPlogKhsa>  (11) 
0.67500000000000004

>  <r_qp_QPlogKp>  (11) 
-5.2930000000000001

>  <r_qp_QPlogPC16>  (11) 
15.019

>  <r_qp_QPlogPo/w>  (11) 
3.4590000000000001

>  <r_qp_QPlogPoct>  (11) 
21.364000000000001

>  <r_qp_QPlogPw>  (11) 
11.351000000000001

>  <r_qp_QPlogS>  (11) 
-2.7599999999999998

>  <r_qp_QPpolrz>  (11) 
45.679000000000002

>  <r_qp_SASA>  (11) 
766.60400000000004

>  <r_qp_SAamideO>  (11) 
0

>  <r_qp_SAfluorine>  (11) 
0

>  <r_qp_WPSA>  (11) 
32.170999999999999

>  <r_qp_accptHB>  (11) 
6

>  <r_qp_dip^2/V>  (11) 
0.012551400000000001

>  <r_qp_dipole>  (11) 
4.1459999999999999

>  <r_qp_donorHB>  (11) 
2

>  <r_qp_glob>  (11) 
0.7780456

>  <r_qp_mol_MW>  (11) 
408.56

>  <r_qp_volume>  (11) 
1369.673

>  <r_sd_BIOSOLVEIT.INFINISEE\_FTREES\_SIMILARITY>  (11) 
0.92300000000000004

>  <r_sd_BIOSOLVEIT.LOGP>  (11) 
1.8934

>  <r_sd_BIOSOLVEIT.MOLECULAR\_WEIGHT>  (11) 
410.58199999999999

>  <r_sd_BIOSOLVEIT.TPSA>  (11) 
64.420000000000002

>  <i_epik_Tot_Q>  (11) 
2

>  <i_epik_Tot_abs_Q>  (11) 
2

>  <i_f3d_flags>  (11) 
0

>  <i_i_glide_confnum>  (11) 
9

>  <i_i_glide_lignum>  (11) 
922

>  <i_i_glide_posenum>  (11) 
12

>  <i_i_glide_rotatable_bonds>  (11) 
10

>  <i_lp_mmshare_version>  (11) 
65135

>  <i_m_ct_format>  (11) 
2

>  <i_m_source_file_index>  (11) 
2302

>  <i_qp_#NandO>  (11) 
5

>  <i_qp_#acid>  (11) 
0

>  <i_qp_#amide>  (11) 
0

>  <i_qp_#amidine>  (11) 
0

>  <i_qp_#amine>  (11) 
3

>  <i_qp_#in34>  (11) 
0

>  <i_qp_#in56>  (11) 
17

>  <i_qp_#metab>  (11) 
8

>  <i_qp_#nonHatm>  (11) 
29

>  <i_qp_#noncon>  (11) 
0

>  <i_qp_#ringatoms>  (11) 
17

>  <i_qp_#rotor>  (11) 
10

>  <i_qp_#rtvFG>  (11) 
0

>  <i_qp_#stars>  (11) 
0

>  <i_qp_CNS>  (11) 
1

>  <i_qp_HumanOralAbsorption>  (11) 
2

>  <i_qp_RuleOfFive>  (11) 
0

>  <i_qp_RuleOfThree>  (11) 
2

>  <i_sd_BIOSOLVEIT.INFINISEE\_RESULT\_RANK>  (11) 
11819

>  <i_sd_version>  (11) 
0

>  <b_lp_Chiralities_Consistent>  (11) 
1

>  <b_sd_chiral_flag>  (11) 
0

>  <canonical_id>  (11) 
ATP-HTVS-2ECA33AB7628

>  <compound_code>  (11) 
73634

>  <title>  (11) 
rxn512b____EMOL530647____EMOL525138____EMOL2873214

>  <variant>  (11) 
73634-1

>  <source_file>  (11) 
运行/运行/ATP-VSW/ATP-VSW-DOCK_HTVS_1-002_lib.maegz

>  <canonical_smiles>  (11) 
C[NH+](C)Cc1cccc(CNc2ccsc2C(=O)N(CC[NH3+])c2ccccc2)c1

>  <scaffold>  (11) 
O=C(Nc1ccccc1)c1sccc1NCc1ccccc1

>  <molecular_formula>  (11) 
C23H30N4OS+2

>  <acquisition_id_v2>  (11) 
ATP-ACQ2-0011

>  <selection_arm_v2>  (11) 
local_structure_bridge

>  <priority_v2>  (11) 
P0

$$$$
ATP-ACQ2-0012
     RDKit          3D

 61 64  0  0  0  0  0  0  0  0999 V2000
  196.3516  187.8382  156.8008 F   0  0  0  0  0  0  0  0  0  0  0  0
  196.8113  186.5898  157.0547 C   0  0  0  0  0  0  0  0  0  0  0  0
  196.3181  185.8621  158.1547 C   0  0  0  0  0  0  0  0  0  0  0  0
  196.7802  184.5527  158.3990 C   0  0  0  0  0  0  0  0  0  0  0  0
  197.7404  183.9652  157.5478 C   0  0  0  0  0  0  0  0  0  0  0  0
  198.1928  182.6926  157.8037 O   0  0  0  0  0  0  0  0  0  0  0  0
  198.1339  181.7456  156.8109 C   0  0  0  0  0  0  0  0  0  0  0  0
  199.0452  180.7591  156.9242 N   0  0  0  0  0  0  0  0  0  0  0  0
  199.0262  179.8167  155.9906 C   0  0  0  0  0  0  0  0  0  0  0  0
  198.2136  179.7511  154.9348 N   0  0  0  0  0  0  0  0  0  0  0  0
  197.2824  180.7217  154.8258 C   0  0  0  0  0  0  0  0  0  0  0  0
  196.4019  180.6525  153.7715 O   0  0  0  0  0  0  0  0  0  0  0  0
  196.9010  180.5987  152.4940 C   0  0  0  0  0  0  0  0  0  0  0  0
  196.6874  181.6842  151.6226 C   0  0  0  0  0  0  0  0  0  0  0  0
  197.1696  181.6336  150.2982 C   0  0  0  0  0  0  0  0  0  0  0  0
  197.8722  180.5015  149.8415 C   0  0  0  0  0  0  0  0  0  0  0  0
  198.3465  180.4606  148.5743 F   0  0  0  0  0  0  0  0  0  0  0  0
  198.0831  179.4123  150.7050 C   0  0  0  0  0  0  0  0  0  0  0  0
  197.5905  179.4601  152.0223 C   0  0  0  0  0  0  0  0  0  0  0  0
  197.2002  181.7712  155.7540 C   0  0  0  0  0  0  0  0  0  0  0  0
  199.9662  178.8265  156.1315 N   0  0  0  0  0  0  0  0  0  0  0  0
  200.3836  177.8134  155.2653 C   0  0  0  0  0  0  0  0  0  0  0  0
  200.5785  176.5144  155.7741 C   0  0  0  0  0  0  0  0  0  0  0  0
  201.0269  175.4946  154.9113 C   0  0  0  0  0  0  0  0  0  0  0  0
  201.3463  175.7687  153.5437 C   0  0  0  0  0  0  0  0  0  0  0  0
  201.2307  177.1038  153.0576 C   0  0  0  0  0  0  0  0  0  0  0  0
  200.6922  178.0909  153.9122 C   0  0  0  0  0  0  0  0  0  0  0  0
  201.7825  174.6371  152.5807 C   0  0  2  0  0  0  0  0  0  0  0  0
  200.9097  174.4628  151.3925 N   0  0  0  0  0  0  0  0  0  0  0  0
  199.4995  174.3498  151.7618 C   0  0  0  0  0  0  0  0  0  0  0  0
  201.0231  175.4892  150.3482 C   0  0  0  0  0  0  0  0  0  0  0  0
  201.9569  173.2747  153.3259 C   0  0  0  0  0  0  0  0  0  0  0  0
  202.6316  172.2316  152.5241 N   0  0  0  0  0  0  0  0  0  0  0  0
  198.2442  184.7143  156.4590 C   0  0  0  0  0  0  0  0  0  0  0  0
  197.7722  186.0159  156.2046 C   0  0  0  0  0  0  0  0  0  0  0  0
  202.7711  171.3889  153.0829 H   0  0  0  0  0  0  0  0  0  0  0  0
  203.5440  172.5549  152.2351 H   0  0  0  0  0  0  0  0  0  0  0  0
  195.5652  186.3002  158.7943 H   0  0  0  0  0  0  0  0  0  0  0  0
  196.3949  183.9950  159.2395 H   0  0  0  0  0  0  0  0  0  0  0  0
  196.1398  182.5493  151.9670 H   0  0  0  0  0  0  0  0  0  0  0  0
  197.0026  182.4626  149.6283 H   0  0  0  0  0  0  0  0  0  0  0  0
  198.6275  178.5441  150.3623 H   0  0  0  0  0  0  0  0  0  0  0  0
  197.7585  178.6206  152.6764 H   0  0  0  0  0  0  0  0  0  0  0  0
  196.4496  182.5411  155.6691 H   0  0  0  0  0  0  0  0  0  0  0  0
  200.3041  178.7485  157.0785 H   0  0  0  0  0  0  0  0  0  0  0  0
  200.3912  176.2755  156.8162 H   0  0  0  0  0  0  0  0  0  0  0  0
  201.1048  174.5148  155.3645 H   0  0  0  0  0  0  0  0  0  0  0  0
  201.4973  177.3652  152.0488 H   0  0  0  0  0  0  0  0  0  0  0  0
  200.5453  179.0898  153.5287 H   0  0  0  0  0  0  0  0  0  0  0  0
  202.7734  174.9194  152.2117 H   0  0  0  0  0  0  0  0  0  0  0  0
  198.8791  174.2465  150.8725 H   0  0  0  0  0  0  0  0  0  0  0  0
  199.1437  175.2635  152.2298 H   0  0  0  0  0  0  0  0  0  0  0  0
  199.2898  173.5049  152.4306 H   0  0  0  0  0  0  0  0  0  0  0  0
  200.3826  175.2093  149.4863 H   0  0  0  0  0  0  0  0  0  0  0  0
  202.0510  175.5072  149.9611 H   0  0  0  0  0  0  0  0  0  0  0  0
  200.7307  176.4554  150.7087 H   0  0  0  0  0  0  0  0  0  0  0  0
  202.6258  173.3832  154.1664 H   0  0  0  0  0  0  0  0  0  0  0  0
  201.0065  172.8573  153.6895 H   0  0  0  0  0  0  0  0  0  0  0  0
  198.9904  184.2896  155.8060 H   0  0  0  0  0  0  0  0  0  0  0  0
  198.1383  186.5775  155.3565 H   0  0  0  0  0  0  0  0  0  0  0  0
  202.0656  172.0398  151.7173 H   0  0  0  0  0  0  0  0  0  0  0  0
  1  2  1  0
  2  3  1  0
  2 35  2  0
  3  4  2  0
  3 38  1  0
  4  5  1  0
  4 39  1  0
  5  6  1  0
  5 34  2  0
  6  7  1  0
  7  8  2  0
  7 20  1  0
  8  9  1  0
  9 10  2  0
  9 21  1  0
 10 11  1  0
 11 12  1  0
 11 20  2  0
 12 13  1  0
 13 14  1  0
 13 19  2  0
 14 15  2  0
 14 40  1  0
 15 16  1  0
 15 41  1  0
 16 17  1  0
 16 18  2  0
 18 19  1  0
 18 42  1  0
 19 43  1  0
 20 44  1  0
 21 22  1  0
 21 45  1  0
 22 23  1  0
 22 27  2  0
 23 24  2  0
 23 46  1  0
 24 25  1  0
 24 47  1  0
 25 26  2  0
 25 28  1  0
 26 27  1  0
 26 48  1  0
 27 49  1  0
 28 29  1  0
 28 32  1  0
 28 50  1  6
 29 30  1  0
 29 31  1  0
 30 51  1  0
 30 52  1  0
 30 53  1  0
 31 54  1  0
 31 55  1  0
 31 56  1  0
 32 33  1  0
 32 57  1  0
 32 58  1  0
 33 36  1  0
 33 37  1  0
 33 61  1  0
 34 35  1  0
 34 59  1  0
 35 60  1  0
M  CHG  1  33   1
M  END
>  <s_epik_cmdline>  (12) 
J2VwaWtfcHl0aG9uJywgJy1waCcsICc3LjAwMDAwMCcsICctcGh0JywgJzIuMDAwMDAwJywgJy1tcycsICcxNicsICctdG4nLCAnOCcsICctbWEnLCAnMjAwJywgJy1pbWFlJywgJzxpbmZpbGUubWFlPicsICctb21hZScsICc8b3V0ZmlsZS5tYWU+Jw==

>  <s_epik_input>  (12) 
RmMxW2NIXVtjSF1jKFtjSF1bY0hdMSlPYzJuYyhbTkhdYzNbY0hdW2NIXWMoW2NIXVtjSF0zKVtDQEhdKE4oW0NIM10pW0NIM10pW0NIMl1bTkgyXSluYyhbY0hdMilPYzRbY0hdW2NIXWMoRilbY0hdW2NIXTQ=

>  <s_i_glide_gridfile>  (12) 
ATP-Grid

>  <s_lp_Force_Field>  (12) 
OPLS_2005

>  <s_lp_Variant>  (12) 
rxn102c____EMOL13081280____EMOL27507560-2

>  <s_lp_label>  (12) 
2671_sdstereoexpander_2_neutralizer_1_epik_1_stereoizer_1

>  <s_m_source_file>  (12) 
ATP-VSW-LIGPREP-002-in.maegz

>  <s_sd_BIOSOLVEIT.INFINISEE\_QUERY\_NAME>  (12) 
Ref-Lig

>  <s_sd_BIOSOLVEIT.INFINISEE\_QUERY\_SMILES>  (12) 
S(c1nc2c(cc1C[NH2+]Cc3ccc(cc3)C[NH+](C)C)cccc2)Cc4ccccc4

>  <s_sd_BIOSOLVEIT.INFINISEE\_REACTION\_NAME>  (12) 
rxn102c

>  <s_sd_BIOSOLVEIT.INFINISEE\_REAGENT1\_NAME>  (12) 
EMOL13081280

>  <s_sd_BIOSOLVEIT.INFINISEE\_REAGENT1\_SMILES>  (12) 
Clc1ccc(cc1)C(N(C)C)CN

>  <s_sd_BIOSOLVEIT.INFINISEE\_REAGENT2\_NAME>  (12) 
EMOL27507560

>  <s_sd_BIOSOLVEIT.INFINISEE\_REAGENT2\_SMILES>  (12) 
Fc1ccc(Oc2nc(nc(Oc3ccc(F)cc3)c2)N)cc1

>  <s_sd_BIOSOLVEIT.INFINISEE\_SPACE>  (12) 
eXplore_7tr_2022-12

>  <s_vsw_compound_code>  (12) 
85442

>  <s_vsw_variant>  (12) 
85442-2

>  <r_epik_Charging_Adjusted_Penalty>  (12) 
0.042882470157395401

>  <r_epik_Ionization_Penalty>  (12) 
0.013100000000000001

>  <r_epik_Ionization_Penalty_Charging>  (12) 
0.0054999999999999997

>  <r_epik_Ionization_Penalty_Neutral>  (12) 
0.0076

>  <r_epik_State_Penalty>  (12) 
0.0373

>  <r_i_docking_score>  (12) 
-4.6286329288577699

>  <r_i_glide_ecoul>  (12) 
-8.6309041976928693

>  <r_i_glide_eff_state_penalty>  (12) 
0.0373

>  <r_i_glide_einternal>  (12) 
16.056491851806602

>  <r_i_glide_emodel>  (12) 
-49.634571736642997

>  <r_i_glide_energy>  (12) 
-41.885397911071799

>  <r_i_glide_erotb>  (12) 
0.61952098774212105

>  <r_i_glide_esite>  (12) 
-0.19756084395878601

>  <r_i_glide_evdw>  (12) 
-33.254493713378899

>  <r_i_glide_gscore>  (12) 
-4.66593292885777

>  <r_i_glide_hbond>  (12) 
-0.20000000000000001

>  <r_i_glide_ligand_efficiency>  (12) 
-0.13224665511022199

>  <r_i_glide_ligand_efficiency_ln>  (12) 
-1.0160876548573501

>  <r_i_glide_ligand_efficiency_sa>  (12) 
-0.43258757765351002

>  <r_i_glide_lipo>  (12) 
-1.33416579463541

>  <r_i_glide_metal>  (12) 
-0

>  <r_i_glide_rewards>  (12) 
-0.59636696268282097

>  <r_lp_Energy>  (12) 
27.75104

>  <r_lp_tautomer_probability>  (12) 
0.99999999991856403

>  <r_qp_ACxDN^.5/SA>  (12) 
0.0135756

>  <r_qp_CIQPlogS>  (12) 
-5.5010000000000003

>  <r_qp_EA(eV)>  (12) 
0.59299999999999997

>  <r_qp_FISA>  (12) 
72.602999999999994

>  <r_qp_FOSA>  (12) 
179.108

>  <r_qp_IP(eV)>  (12) 
8.5299999999999994

>  <r_qp_Jm>  (12) 
0.000216500022832566

>  <r_qp_PISA>  (12) 
483.56299999999999

>  <r_qp_PSA>  (12) 
75.420000000000002

>  <r_qp_PercentHumanOralAbsorption>  (12) 
92.715999999999994

>  <r_qp_QPPCaco>  (12) 
126.24299999999999

>  <r_qp_QPPMDCK>  (12) 
211.71299999999999

>  <r_qp_QPlogBB>  (12) 
0.13900000000000001

>  <r_qp_QPlogHERG>  (12) 
-9.2560000000000002

>  <r_qp_QPlogKhsa>  (12) 
0.76500000000000001

>  <r_qp_QPlogKp>  (12) 
-4.319

>  <r_qp_QPlogPC16>  (12) 
16.202000000000002

>  <r_qp_QPlogPo/w>  (12) 
4.8099999999999996

>  <r_qp_QPlogPoct>  (12) 
25.065999999999999

>  <r_qp_QPlogPw>  (12) 
14.121

>  <r_qp_QPlogS>  (12) 
-5.024

>  <r_qp_QPpolrz>  (12) 
50.988999999999997

>  <r_qp_SASA>  (12) 
829.30799999999999

>  <r_qp_SAamideO>  (12) 
0

>  <r_qp_SAfluorine>  (12) 
94.034999999999997

>  <r_qp_WPSA>  (12) 
94.034999999999997

>  <r_qp_accptHB>  (12) 
6.5

>  <r_qp_dip^2/V>  (12) 
0.0012788000000000001

>  <r_qp_dipole>  (12) 
1.3720000000000001

>  <r_qp_donorHB>  (12) 
3

>  <r_qp_glob>  (12) 
0.75491580000000003

>  <r_qp_mol_MW>  (12) 
477.51299999999998

>  <r_qp_volume>  (12) 
1472.903

>  <r_sd_BIOSOLVEIT.INFINISEE\_FTREES\_SIMILARITY>  (12) 
0.90900000000000003

>  <r_sd_BIOSOLVEIT.LOGP>  (12) 
3.5105

>  <r_sd_BIOSOLVEIT.MOLECULAR\_WEIGHT>  (12) 
479.52800000000002

>  <r_sd_BIOSOLVEIT.TPSA>  (12) 
88.349999999999994

>  <i_epik_Tot_Q>  (12) 
1

>  <i_epik_Tot_abs_Q>  (12) 
1

>  <i_f3d_flags>  (12) 
0

>  <i_i_glide_confnum>  (12) 
9

>  <i_i_glide_lignum>  (12) 
1287

>  <i_i_glide_posenum>  (12) 
1

>  <i_i_glide_rotatable_bonds>  (12) 
9

>  <i_lp_mmshare_version>  (12) 
65135

>  <i_m_ct_format>  (12) 
2

>  <i_m_source_file_index>  (12) 
2671

>  <i_qp_#NandO>  (12) 
7

>  <i_qp_#acid>  (12) 
0

>  <i_qp_#amide>  (12) 
0

>  <i_qp_#amidine>  (12) 
0

>  <i_qp_#amine>  (12) 
2

>  <i_qp_#in34>  (12) 
0

>  <i_qp_#in56>  (12) 
24

>  <i_qp_#metab>  (12) 
4

>  <i_qp_#nonHatm>  (12) 
35

>  <i_qp_#noncon>  (12) 
0

>  <i_qp_#ringatoms>  (12) 
24

>  <i_qp_#rotor>  (12) 
10

>  <i_qp_#rtvFG>  (12) 
0

>  <i_qp_#stars>  (12) 
1

>  <i_qp_CNS>  (12) 
1

>  <i_qp_HumanOralAbsorption>  (12) 
3

>  <i_qp_RuleOfFive>  (12) 
0

>  <i_qp_RuleOfThree>  (12) 
0

>  <i_sd_BIOSOLVEIT.INFINISEE\_RESULT\_RANK>  (12) 
49088

>  <i_sd_version>  (12) 
0

>  <b_lp_Chiralities_Consistent>  (12) 
1

>  <b_sd_chiral_flag>  (12) 
0

>  <canonical_id>  (12) 
ATP-HTVS-BB2B7EB3D06A

>  <compound_code>  (12) 
85442

>  <title>  (12) 
rxn102c____EMOL13081280____EMOL27507560

>  <variant>  (12) 
85442-2

>  <source_file>  (12) 
运行/运行/ATP-VSW/ATP-VSW-DOCK_HTVS_1-002_lib.maegz

>  <canonical_smiles>  (12) 
CN(C)[C@H](C[NH3+])c1ccc(Nc2nc(Oc3ccc(F)cc3)cc(Oc3ccc(F)cc3)n2)cc1

>  <scaffold>  (12) 
c1ccc(Nc2nc(Oc3ccccc3)cc(Oc3ccccc3)n2)cc1

>  <molecular_formula>  (12) 
C26H26F2N5O2+

>  <acquisition_id_v2>  (12) 
ATP-ACQ2-0012

>  <selection_arm_v2>  (12) 
scaffold_score_exploration

>  <priority_v2>  (12) 
P0

$$$$
ATP-ACQ2-0013
     RDKit          3D

 53 55  0  0  0  0  0  0  0  0999 V2000
  196.9722  184.6371  147.7184 O   0  0  0  0  0  0  0  0  0  0  0  0
  197.1791  183.9841  148.8966 C   0  0  0  0  0  0  0  0  0  0  0  0
  196.3472  184.2447  149.9979 C   0  0  0  0  0  0  0  0  0  0  0  0
  196.5465  183.5750  151.2165 C   0  0  0  0  0  0  0  0  0  0  0  0
  197.5821  182.6210  151.3556 C   0  0  0  0  0  0  0  0  0  0  0  0
  197.7838  181.9274  152.6413 C   0  0  0  0  0  0  0  0  0  0  0  0
  199.0539  181.5231  152.8660 N   0  0  0  0  0  0  0  0  0  0  0  0
  199.3542  180.8998  154.0338 C   0  0  0  0  0  0  0  0  0  0  0  0
  198.3666  180.5963  155.0073 C   0  0  0  0  0  0  0  0  0  0  0  0
  197.0478  181.0353  154.7877 C   0  0  0  0  0  0  0  0  0  0  0  0
  196.7523  181.7237  153.5913 C   0  0  0  0  0  0  0  0  0  0  0  0
  198.7307  179.8369  156.2733 C   0  0  0  0  0  0  0  0  0  0  0  0
  199.1492  178.4462  156.0048 N   0  0  0  0  0  0  0  0  0  0  0  0
  200.5649  178.3280  155.5739 C   0  0  0  0  0  0  0  0  0  0  0  0
  200.8931  176.9024  155.2047 C   0  0  0  0  0  0  0  0  0  0  0  0
  200.6316  176.4401  153.8977 C   0  0  0  0  0  0  0  0  0  0  0  0
  200.9614  175.1196  153.5335 C   0  0  0  0  0  0  0  0  0  0  0  0
  201.5372  174.2551  154.4895 C   0  0  0  0  0  0  0  0  0  0  0  0
  201.7820  174.7343  155.7933 C   0  0  0  0  0  0  0  0  0  0  0  0
  201.4743  176.0564  156.1550 C   0  0  0  0  0  0  0  0  0  0  0  0
  201.9095  172.8226  154.1253 C   0  0  0  0  0  0  0  0  0  0  0  0
  203.3605  172.6403  153.8517 N   0  0  0  0  0  0  0  0  0  0  0  0
  204.2494  173.1253  154.9301 C   0  0  0  0  0  0  0  0  0  0  0  0
  203.7657  173.1650  152.5304 C   0  0  0  0  0  0  0  0  0  0  0  0
  198.4194  182.3778  150.2414 C   0  0  0  0  0  0  0  0  0  0  0  0
  198.2250  183.0498  149.0197 C   0  0  0  0  0  0  0  0  0  0  0  0
  198.9531  177.9072  156.8377 H   0  0  0  0  0  0  0  0  0  0  0  0
  196.2069  185.1914  147.7208 H   0  0  0  0  0  0  0  0  0  0  0  0
  195.5453  184.9615  149.9152 H   0  0  0  0  0  0  0  0  0  0  0  0
  195.9107  183.8086  152.0576 H   0  0  0  0  0  0  0  0  0  0  0  0
  200.3850  180.6264  154.1737 H   0  0  0  0  0  0  0  0  0  0  0  0
  196.2661  180.8799  155.5197 H   0  0  0  0  0  0  0  0  0  0  0  0
  195.7530  182.1048  153.4228 H   0  0  0  0  0  0  0  0  0  0  0  0
  199.4953  180.3692  156.8369 H   0  0  0  0  0  0  0  0  0  0  0  0
  197.8588  179.8096  156.9226 H   0  0  0  0  0  0  0  0  0  0  0  0
  200.7934  178.9163  154.6686 H   0  0  0  0  0  0  0  0  0  0  0  0
  201.2337  178.6698  156.3779 H   0  0  0  0  0  0  0  0  0  0  0  0
  200.1925  177.0912  153.1599 H   0  0  0  0  0  0  0  0  0  0  0  0
  200.7613  174.7692  152.5289 H   0  0  0  0  0  0  0  0  0  0  0  0
  202.2561  174.1000  156.5185 H   0  0  0  0  0  0  0  0  0  0  0  0
  201.7307  176.4270  157.1417 H   0  0  0  0  0  0  0  0  0  0  0  0
  201.6082  172.1637  154.9362 H   0  0  0  0  0  0  0  0  0  0  0  0
  201.3242  172.5046  153.2563 H   0  0  0  0  0  0  0  0  0  0  0  0
  204.2094  174.2076  155.0360 H   0  0  0  0  0  0  0  0  0  0  0  0
  205.3001  172.8838  154.7234 H   0  0  0  0  0  0  0  0  0  0  0  0
  203.9456  172.6620  155.8689 H   0  0  0  0  0  0  0  0  0  0  0  0
  203.5933  174.2423  152.4650 H   0  0  0  0  0  0  0  0  0  0  0  0
  203.2060  172.6825  151.7295 H   0  0  0  0  0  0  0  0  0  0  0  0
  204.8263  172.9885  152.3563 H   0  0  0  0  0  0  0  0  0  0  0  0
  199.2295  181.6617  150.3089 H   0  0  0  0  0  0  0  0  0  0  0  0
  198.8689  182.8422  148.1775 H   0  0  0  0  0  0  0  0  0  0  0  0
  203.4885  171.6169  153.8580 H   0  0  0  0  0  0  0  0  0  0  0  0
  198.5512  178.0695  155.2863 H   0  0  0  0  0  0  0  0  0  0  0  0
  1  2  1  0
  1 28  1  0
  2  3  1  0
  2 26  2  0
  3  4  2  0
  3 29  1  0
  4  5  1  0
  4 30  1  0
  5  6  1  0
  5 25  2  0
  6  7  1  0
  6 11  2  0
  7  8  2  0
  8  9  1  0
  8 31  1  0
  9 10  2  0
  9 12  1  0
 10 11  1  0
 10 32  1  0
 11 33  1  0
 12 13  1  0
 12 34  1  0
 12 35  1  0
 13 14  1  0
 13 27  1  0
 13 53  1  0
 14 15  1  0
 14 36  1  0
 14 37  1  0
 15 16  1  0
 15 20  2  0
 16 17  2  0
 16 38  1  0
 17 18  1  0
 17 39  1  0
 18 19  2  0
 18 21  1  0
 19 20  1  0
 19 40  1  0
 20 41  1  0
 21 22  1  0
 21 42  1  0
 21 43  1  0
 22 23  1  0
 22 24  1  0
 22 52  1  0
 23 44  1  0
 23 45  1  0
 23 46  1  0
 24 47  1  0
 24 48  1  0
 24 49  1  0
 25 26  1  0
 25 50  1  0
 26 51  1  0
M  CHG  2  13   1  22   1
M  END
>  <s_epik_cmdline>  (13) 
J2VwaWtfcHl0aG9uJywgJy1waCcsICc3LjAwMDAwMCcsICctcGh0JywgJzIuMDAwMDAwJywgJy1tcycsICcxNicsICctdG4nLCAnOCcsICctbWEnLCAnMjAwJywgJy1pbWFlJywgJzxpbmZpbGUubWFlPicsICctb21hZScsICc8b3V0ZmlsZS5tYWU+Jw==

>  <s_epik_input>  (13) 
W09IXWMxW2NIXVtjSF1jKFtjSF1bY0hdMSktYzJuW2NIXWMoW2NIXVtjSF0yKVtDSDJdW05IXVtDSDJdYzNbY0hdW2NIXWMoW2NIXVtjSF0zKVtDSDJdTihbQ0gzXSlbQ0gzXQ==

>  <s_i_glide_gridfile>  (13) 
ATP-Grid

>  <s_lp_Force_Field>  (13) 
OPLS_2005

>  <s_lp_Variant>  (13) 
WXDL_15E____QS5063____LN00244457____BT0555-1

>  <s_lp_label>  (13) 
627_sdstereoexpander_1_neutralizer_1_epik_1_stereoizer_1

>  <s_m_source_file>  (13) 
ATP-VSW-LIGPREP-002-in.maegz

>  <s_sd_BIOSOLVEIT.INFINISEE\_QUERY\_NAME>  (13) 
Ref-Lig

>  <s_sd_BIOSOLVEIT.INFINISEE\_QUERY\_SMILES>  (13) 
S(c1nc2c(cc1C[NH2+]Cc3ccc(cc3)C[NH+](C)C)cccc2)Cc4ccccc4

>  <s_sd_BIOSOLVEIT.INFINISEE\_REACTION\_NAME>  (13) 
WXDL_15E

>  <s_sd_BIOSOLVEIT.INFINISEE\_REAGENT1\_NAME>  (13) 
QS5063

>  <s_sd_BIOSOLVEIT.INFINISEE\_REAGENT1\_SMILES>  (13) 
O=Cc1ccc(cc1)CN(C)C

>  <s_sd_BIOSOLVEIT.INFINISEE\_REAGENT2\_NAME>  (13) 
LN00244457

>  <s_sd_BIOSOLVEIT.INFINISEE\_REAGENT2\_SMILES>  (13) 
Brc1ncc(cc1)CNC(=O)OC(C)(C)C

>  <s_sd_BIOSOLVEIT.INFINISEE\_REAGENT3\_NAME>  (13) 
BT0555

>  <s_sd_BIOSOLVEIT.INFINISEE\_REAGENT3\_SMILES>  (13) 
Oc1ccc(cc1)B(O)O

>  <s_sd_BIOSOLVEIT.INFINISEE\_SPACE>  (13) 
GalaXi_12bn_2023-03

>  <s_vsw_compound_code>  (13) 
20034

>  <s_vsw_variant>  (13) 
20034-1

>  <r_epik_Charging_Adjusted_Penalty>  (13) 
0.36260264626329503

>  <r_epik_Ionization_Penalty>  (13) 
0.18129999999999999

>  <r_epik_Ionization_Penalty_Charging>  (13) 
0.1799

>  <r_epik_Ionization_Penalty_Neutral>  (13) 
0.0014

>  <r_epik_State_Penalty>  (13) 
0.1827

>  <r_i_docking_score>  (13) 
-6.6614367029427797

>  <r_i_glide_ecoul>  (13) 
-20.883989334106399

>  <r_i_glide_eff_state_penalty>  (13) 
0.1827

>  <r_i_glide_einternal>  (13) 
3.3178658485412602

>  <r_i_glide_emodel>  (13) 
-75.011169116128798

>  <r_i_glide_energy>  (13) 
-45.189605712890597

>  <r_i_glide_erotb>  (13) 
0.93585446189056398

>  <r_i_glide_esite>  (13) 
-0.20000000000000001

>  <r_i_glide_evdw>  (13) 
-24.305616378784201

>  <r_i_glide_gscore>  (13) 
-6.8441367029427802

>  <r_i_glide_hbond>  (13) 
-0.62646890064982197

>  <r_i_glide_ligand_efficiency>  (13) 
-0.25620910395933799

>  <r_i_glide_ligand_efficiency_ln>  (13) 
-1.5644165517294699

>  <r_i_glide_ligand_efficiency_sa>  (13) 
-0.75901846234539405

>  <r_i_glide_lipo>  (13) 
-1.3542972269465201

>  <r_i_glide_metal>  (13) 
-0

>  <r_i_glide_rewards>  (13) 
-1.25134581818182

>  <r_lp_Energy>  (13) 
17.966108999999999

>  <r_lp_tautomer_probability>  (13) 
0.999999999997365

>  <r_qp_ACxDN^.5/SA>  (13) 
0.0102638

>  <r_qp_CIQPlogS>  (13) 
-3.1120000000000001

>  <r_qp_EA(eV)>  (13) 
0.45400000000000001

>  <r_qp_FISA>  (13) 
80.313000000000002

>  <r_qp_FOSA>  (13) 
250.41

>  <r_qp_IP(eV)>  (13) 
8.7789999999999999

>  <r_qp_Jm>  (13) 
0.00081218796813291002

>  <r_qp_PISA>  (13) 
392.654

>  <r_qp_PSA>  (13) 
52.308999999999997

>  <r_qp_PercentHumanOralAbsorption>  (13) 
84.254999999999995

>  <r_qp_QPPCaco>  (13) 
106.68300000000001

>  <r_qp_QPPMDCK>  (13) 
53.901000000000003

>  <r_qp_QPlogBB>  (13) 
-0.012999999999999999

>  <r_qp_QPlogHERG>  (13) 
-8.4960000000000004

>  <r_qp_QPlogKhsa>  (13) 
0.57399999999999995

>  <r_qp_QPlogKp>  (13) 
-4.9740000000000002

>  <r_qp_QPlogPC16>  (13) 
13.712999999999999

>  <r_qp_QPlogPo/w>  (13) 
3.5880000000000001

>  <r_qp_QPlogPoct>  (13) 
19.489000000000001

>  <r_qp_QPlogPw>  (13) 
11.013

>  <r_qp_QPlogS>  (13) 
-3.6579999999999999

>  <r_qp_QPpolrz>  (13) 
42.420000000000002

>  <r_qp_SASA>  (13) 
723.37699999999995

>  <r_qp_SAamideO>  (13) 
0

>  <r_qp_SAfluorine>  (13) 
0

>  <r_qp_WPSA>  (13) 
0

>  <r_qp_accptHB>  (13) 
5.25

>  <r_qp_dip^2/V>  (13) 
0.0027087999999999999

>  <r_qp_dipole>  (13) 
1.839

>  <r_qp_donorHB>  (13) 
2

>  <r_qp_glob>  (13) 
0.77512389999999998

>  <r_qp_mol_MW>  (13) 
347.459

>  <r_qp_volume>  (13) 
1248.4069999999999

>  <r_sd_BIOSOLVEIT.INFINISEE\_FTREES\_SIMILARITY>  (13) 
0.91700000000000004

>  <r_sd_BIOSOLVEIT.LOGP>  (13) 
1.3623000000000001

>  <r_sd_BIOSOLVEIT.MOLECULAR\_WEIGHT>  (13) 
349.47500000000002

>  <r_sd_BIOSOLVEIT.TPSA>  (13) 
54.170000000000002

>  <i_epik_Tot_Q>  (13) 
2

>  <i_epik_Tot_abs_Q>  (13) 
2

>  <i_f3d_flags>  (13) 
0

>  <i_i_glide_confnum>  (13) 
7

>  <i_i_glide_lignum>  (13) 
174

>  <i_i_glide_posenum>  (13) 
19

>  <i_i_glide_rotatable_bonds>  (13) 
8

>  <i_lp_mmshare_version>  (13) 
65135

>  <i_m_ct_format>  (13) 
2

>  <i_m_source_file_index>  (13) 
627

>  <i_qp_#NandO>  (13) 
4

>  <i_qp_#acid>  (13) 
0

>  <i_qp_#amide>  (13) 
0

>  <i_qp_#amidine>  (13) 
0

>  <i_qp_#amine>  (13) 
2

>  <i_qp_#in34>  (13) 
0

>  <i_qp_#in56>  (13) 
18

>  <i_qp_#metab>  (13) 
7

>  <i_qp_#nonHatm>  (13) 
26

>  <i_qp_#noncon>  (13) 
0

>  <i_qp_#ringatoms>  (13) 
18

>  <i_qp_#rotor>  (13) 
8

>  <i_qp_#rtvFG>  (13) 
0

>  <i_qp_#stars>  (13) 
0

>  <i_qp_CNS>  (13) 
1

>  <i_qp_HumanOralAbsorption>  (13) 
2

>  <i_qp_RuleOfFive>  (13) 
0

>  <i_qp_RuleOfThree>  (13) 
1

>  <i_sd_BIOSOLVEIT.INFINISEE\_RESULT\_RANK>  (13) 
24092

>  <i_sd_version>  (13) 
0

>  <b_lp_Chiralities_Consistent>  (13) 
1

>  <b_sd_chiral_flag>  (13) 
0

>  <canonical_id>  (13) 
ATP-HTVS-CEDCE5F1BEB7

>  <compound_code>  (13) 
20034

>  <title>  (13) 
WXDL_15E____QS5063____LN00244457____BT0555

>  <variant>  (13) 
20034-1

>  <source_file>  (13) 
运行/运行/ATP-VSW/ATP-VSW-DOCK_HTVS_1-002_lib.maegz

>  <canonical_smiles>  (13) 
C[NH+](C)Cc1ccc(C[NH2+]Cc2ccc(-c3ccc(O)cc3)nc2)cc1

>  <scaffold>  (13) 
c1ccc(C[NH2+]Cc2ccc(-c3ccccc3)nc2)cc1

>  <molecular_formula>  (13) 
C22H27N3O+2

>  <acquisition_id_v2>  (13) 
ATP-ACQ2-0013

>  <selection_arm_v2>  (13) 
exploitation

>  <priority_v2>  (13) 
P0

$$$$
ATP-ACQ2-0014
     RDKit          3D

 63 67  0  0  0  0  0  0  0  0999 V2000
  194.7538  183.4568  159.3611 N   0  0  0  0  0  0  0  0  0  0  0  0
  195.3893  184.5747  158.9381 C   0  0  0  0  0  0  0  0  0  0  0  0
  196.5338  184.5621  158.0969 C   0  0  0  0  0  0  0  0  0  0  0  0
  197.0365  183.2958  157.7306 C   0  0  0  0  0  0  0  0  0  0  0  0
  196.3652  182.1387  158.1425 C   0  0  0  0  0  0  0  0  0  0  0  0
  195.2235  182.2632  158.9482 C   0  0  0  0  0  0  0  0  0  0  0  0
  197.1451  185.8180  157.6139 C   0  0  0  0  0  0  0  0  0  0  0  0
  197.0245  186.9041  158.3626 N   0  0  0  0  0  0  0  0  0  0  0  0
  197.6492  187.9085  157.7102 N   0  0  0  0  0  0  0  0  0  0  0  0
  197.7162  189.2197  158.2614 C   0  0  0  0  0  0  0  0  0  0  0  0
  198.3476  190.2694  157.5489 C   0  0  0  0  0  0  0  0  0  0  0  0
  198.4092  191.5674  158.0865 C   0  0  0  0  0  0  0  0  0  0  0  0
  197.8452  191.8371  159.3471 C   0  0  0  0  0  0  0  0  0  0  0  0
  197.2138  190.8065  160.0667 C   0  0  0  0  0  0  0  0  0  0  0  0
  197.1486  189.5072  159.5302 C   0  0  0  0  0  0  0  0  0  0  0  0
  198.1615  187.4406  156.5157 C   0  0  0  0  0  0  0  0  0  0  0  0
  197.8567  186.1128  156.4001 C   0  0  0  0  0  0  0  0  0  0  0  0
  198.2130  185.2331  155.2246 C   0  0  0  0  0  0  0  0  0  0  0  0
  196.9966  184.9295  154.4416 N   0  0  0  0  0  0  0  0  0  0  0  0
  197.1936  183.9826  153.3244 C   0  0  0  0  0  0  0  0  0  0  0  0
  197.6083  182.5986  153.8059 C   0  0  0  0  0  0  0  0  0  0  0  0
  198.8737  182.0772  153.4571 C   0  0  0  0  0  0  0  0  0  0  0  0
  199.2432  180.7933  153.8950 C   0  0  0  0  0  0  0  0  0  0  0  0
  198.3757  180.0296  154.7058 C   0  0  0  0  0  0  0  0  0  0  0  0
  197.1212  180.5578  155.0683 C   0  0  0  0  0  0  0  0  0  0  0  0
  196.7424  181.8328  154.6113 C   0  0  0  0  0  0  0  0  0  0  0  0
  198.7926  178.6614  155.2031 C   0  0  0  0  0  0  0  0  0  0  0  0
  199.5550  178.7359  156.4829 N   0  0  0  0  0  0  0  0  0  0  0  0
  200.1110  177.4504  156.9330 C   0  0  0  0  0  0  0  0  0  0  0  0
  201.1242  177.8366  158.0162 C   0  0  0  0  0  0  0  0  0  0  0  0
  201.5387  179.2894  157.7133 C   0  0  0  0  0  0  0  0  0  0  0  0
  200.7066  179.6701  156.4944 C   0  0  0  0  0  0  0  0  0  0  0  0
  196.2933  184.5230  155.0420 H   0  0  0  0  0  0  0  0  0  0  0  0
  194.9574  185.5043  159.2876 H   0  0  0  0  0  0  0  0  0  0  0  0
  197.9249  183.1476  157.1399 H   0  0  0  0  0  0  0  0  0  0  0  0
  196.7224  181.1655  157.8393 H   0  0  0  0  0  0  0  0  0  0  0  0
  194.7179  181.3713  159.2966 H   0  0  0  0  0  0  0  0  0  0  0  0
  198.7907  190.1004  156.5803 H   0  0  0  0  0  0  0  0  0  0  0  0
  198.8918  192.3587  157.5325 H   0  0  0  0  0  0  0  0  0  0  0  0
  197.9009  192.8341  159.7571 H   0  0  0  0  0  0  0  0  0  0  0  0
  196.7791  191.0072  161.0349 H   0  0  0  0  0  0  0  0  0  0  0  0
  196.6582  188.7348  160.1032 H   0  0  0  0  0  0  0  0  0  0  0  0
  198.7041  188.0769  155.8335 H   0  0  0  0  0  0  0  0  0  0  0  0
  198.9275  185.7345  154.5662 H   0  0  0  0  0  0  0  0  0  0  0  0
  198.7366  184.3312  155.5232 H   0  0  0  0  0  0  0  0  0  0  0  0
  196.2683  183.8893  152.7529 H   0  0  0  0  0  0  0  0  0  0  0  0
  197.9470  184.3869  152.6454 H   0  0  0  0  0  0  0  0  0  0  0  0
  199.5612  182.6542  152.8607 H   0  0  0  0  0  0  0  0  0  0  0  0
  200.2199  180.4138  153.6332 H   0  0  0  0  0  0  0  0  0  0  0  0
  196.4576  180.0017  155.7177 H   0  0  0  0  0  0  0  0  0  0  0  0
  195.7779  182.2174  154.9046 H   0  0  0  0  0  0  0  0  0  0  0  0
  197.9173  178.0380  155.3647 H   0  0  0  0  0  0  0  0  0  0  0  0
  199.3872  178.1861  154.4207 H   0  0  0  0  0  0  0  0  0  0  0  0
  199.3498  176.7495  157.2774 H   0  0  0  0  0  0  0  0  0  0  0  0
  200.6432  176.9771  156.0995 H   0  0  0  0  0  0  0  0  0  0  0  0
  200.6689  177.7664  159.0042 H   0  0  0  0  0  0  0  0  0  0  0  0
  201.9542  177.1423  157.9814 H   0  0  0  0  0  0  0  0  0  0  0  0
  201.2841  179.9469  158.5259 H   0  0  0  0  0  0  0  0  0  0  0  0
  202.6061  179.4218  157.5287 H   0  0  0  0  0  0  0  0  0  0  0  0
  201.3154  179.4887  155.5942 H   0  0  0  0  0  0  0  0  0  0  0  0
  200.4278  180.7221  156.5090 H   0  0  0  0  0  0  0  0  0  0  0  0
  198.9131  178.9979  157.2201 H   0  0  0  0  0  0  0  0  0  0  0  0
  196.6102  185.7919  154.0762 H   0  0  0  0  0  0  0  0  0  0  0  0
  1  2  1  0
  1  6  2  0
  2  3  2  0
  2 34  1  0
  3  4  1  0
  3  7  1  0
  4  5  2  0
  4 35  1  0
  5  6  1  0
  5 36  1  0
  6 37  1  0
  7  8  2  0
  7 17  1  0
  8  9  1  0
  9 10  1  0
  9 16  1  0
 10 11  2  0
 10 15  1  0
 11 12  1  0
 11 38  1  0
 12 13  2  0
 12 39  1  0
 13 14  1  0
 13 40  1  0
 14 15  2  0
 14 41  1  0
 15 42  1  0
 16 17  2  0
 16 43  1  0
 17 18  1  0
 18 19  1  0
 18 44  1  0
 18 45  1  0
 19 20  1  0
 19 33  1  0
 19 63  1  0
 20 21  1  0
 20 46  1  0
 20 47  1  0
 21 22  1  0
 21 26  2  0
 22 23  2  0
 22 48  1  0
 23 24  1  0
 23 49  1  0
 24 25  2  0
 24 27  1  0
 25 26  1  0
 25 50  1  0
 26 51  1  0
 27 28  1  0
 27 52  1  0
 27 53  1  0
 28 29  1  0
 28 32  1  0
 28 62  1  0
 29 30  1  0
 29 54  1  0
 29 55  1  0
 30 31  1  0
 30 56  1  0
 30 57  1  0
 31 32  1  0
 31 58  1  0
 31 59  1  0
 32 60  1  0
 32 61  1  0
M  CHG  2  19   1  28   1
M  END
>  <s_epik_cmdline>  (14) 
J2VwaWtfcHl0aG9uJywgJy1waCcsICc3LjAwMDAwMCcsICctcGh0JywgJzIuMDAwMDAwJywgJy1tcycsICcxNicsICctdG4nLCAnOCcsICctbWEnLCAnMjAwJywgJy1pbWFlJywgJzxpbmZpbGUubWFlPicsICctb21hZScsICc8b3V0ZmlsZS5tYWU+Jw==

>  <s_epik_input>  (14) 
W2NIXTFbY0hdW2NIXW5bY0hdYzEtYzJubigtYzNbY0hdW2NIXVtjSF1bY0hdW2NIXTMpW2NIXWMyW0NIMl1bTkhdW0NIMl1jNFtjSF1bY0hdYyhbY0hdW2NIXTQpW0NIMl1ONVtDSDJdW0NIMl1bQ0gyXVtDSDJdNQ==

>  <s_i_glide_gridfile>  (14) 
ATP-Grid

>  <s_lp_Force_Field>  (14) 
OPLS_2005

>  <s_lp_Variant>  (14) 
m_270004bbb____8288996____7547738-1

>  <s_lp_label>  (14) 
1194_sdstereoexpander_1_neutralizer_1_epik_1_stereoizer_1

>  <s_m_source_file>  (14) 
ATP-VSW-LIGPREP-001-in.maegz

>  <s_sd_BIOSOLVEIT.INFINISEE\_QUERY\_NAME>  (14) 
Ref-Lig

>  <s_sd_BIOSOLVEIT.INFINISEE\_QUERY\_SMILES>  (14) 
S(c1nc2c(cc1C[NH2+]Cc3ccc(cc3)C[NH+](C)C)cccc2)Cc4ccccc4

>  <s_sd_BIOSOLVEIT.INFINISEE\_REACTION\_NAME>  (14) 
m_270004bbb

>  <s_sd_BIOSOLVEIT.INFINISEE\_REAGENT1\_SMILES>  (14) 
[R1*]NCc1ccc(cc1)CN2CCCC2

>  <s_sd_BIOSOLVEIT.INFINISEE\_REAGENT2\_SMILES>  (14) 
[R1*]CC=1C(=NN(c2ccccc2)C1)c3cnccc3

>  <s_sd_BIOSOLVEIT.INFINISEE\_SPACE>  (14) 
REALSpace_44bn_2023-08

>  <s_vsw_compound_code>  (14) 
38177

>  <s_vsw_variant>  (14) 
38177-1

>  <r_epik_Charging_Adjusted_Penalty>  (14) 
0.22586618430728

>  <r_epik_Ionization_Penalty>  (14) 
0.1169

>  <r_epik_Ionization_Penalty_Charging>  (14) 
0.1139

>  <r_epik_Ionization_Penalty_Neutral>  (14) 
0.0030999999999999999

>  <r_epik_State_Penalty>  (14) 
0.112

>  <r_i_docking_score>  (14) 
-4.6576562853469499

>  <r_i_glide_ecoul>  (14) 
-11.0505104064941

>  <r_i_glide_eff_state_penalty>  (14) 
0.112

>  <r_i_glide_einternal>  (14) 
2.2352814674377401

>  <r_i_glide_emodel>  (14) 
-70.281259387761196

>  <r_i_glide_energy>  (14) 
-48.929336547851598

>  <r_i_glide_erotb>  (14) 
0.87630884457119895

>  <r_i_glide_esite>  (14) 
-0.094967817878864005

>  <r_i_glide_evdw>  (14) 
-37.878826141357401

>  <r_i_glide_gscore>  (14) 
-4.76965628534695

>  <r_i_glide_hbond>  (14) 
-0.083527251195898503

>  <r_i_glide_ligand_efficiency>  (14) 
-0.14555175891709199

>  <r_i_glide_ligand_efficiency_ln>  (14) 
-1.0429762052043601

>  <r_i_glide_ligand_efficiency_sa>  (14) 
-0.46209802990779097

>  <r_i_glide_lipo>  (14) 
-1.0471583439457499

>  <r_i_glide_metal>  (14) 
-0

>  <r_i_glide_rewards>  (14) 
-0.86879384885564404

>  <r_lp_Energy>  (14) 
38.888362999999998

>  <r_lp_tautomer_probability>  (14) 
1

>  <r_qp_ACxDN^.5/SA>  (14) 
0.0077134999999999999

>  <r_qp_CIQPlogS>  (14) 
-4.7489999999999997

>  <r_qp_EA(eV)>  (14) 
0.73299999999999998

>  <r_qp_FISA>  (14) 
44.170999999999999

>  <r_qp_FOSA>  (14) 
282.70800000000003

>  <r_qp_IP(eV)>  (14) 
8.8390000000000004

>  <r_qp_Jm>  (14) 
0.00036576059575508298

>  <r_qp_PISA>  (14) 
450.98000000000002

>  <r_qp_PSA>  (14) 
44.491

>  <r_qp_PercentHumanOralAbsorption>  (14) 
100

>  <r_qp_QPPCaco>  (14) 
234.869

>  <r_qp_QPPMDCK>  (14) 
126.48699999999999

>  <r_qp_QPlogBB>  (14) 
0.52600000000000002

>  <r_qp_QPlogHERG>  (14) 
-8.5500000000000007

>  <r_qp_QPlogKhsa>  (14) 
1.0580000000000001

>  <r_qp_QPlogKp>  (14) 
-4.2939999999999996

>  <r_qp_QPlogPC16>  (14) 
15.304

>  <r_qp_QPlogPo/w>  (14) 
4.9100000000000001

>  <r_qp_QPlogPoct>  (14) 
21.759

>  <r_qp_QPlogPw>  (14) 
11.01

>  <r_qp_QPlogS>  (14) 
-4.7699999999999996

>  <r_qp_QPpolrz>  (14) 
51.506999999999998

>  <r_qp_SASA>  (14) 
777.85900000000004

>  <r_qp_SAamideO>  (14) 
0

>  <r_qp_SAfluorine>  (14) 
0

>  <r_qp_WPSA>  (14) 
0

>  <r_qp_accptHB>  (14) 
6

>  <r_qp_dip^2/V>  (14) 
0.0052636000000000002

>  <r_qp_dipole>  (14) 
2.7429999999999999

>  <r_qp_donorHB>  (14) 
1

>  <r_qp_glob>  (14) 
0.78894129999999996

>  <r_qp_mol_MW>  (14) 
423.56

>  <r_qp_volume>  (14) 
1429.4570000000001

>  <r_sd_BIOSOLVEIT.INFINISEE\_FTREES\_SIMILARITY>  (14) 
0.91100000000000003

>  <r_sd_BIOSOLVEIT.LOGP>  (14) 
2.3765999999999998

>  <r_sd_BIOSOLVEIT.MOLECULAR\_WEIGHT>  (14) 
425.577

>  <r_sd_BIOSOLVEIT.TPSA>  (14) 
51.759999999999998

>  <i_epik_Tot_Q>  (14) 
2

>  <i_epik_Tot_abs_Q>  (14) 
2

>  <i_f3d_flags>  (14) 
0

>  <i_i_glide_confnum>  (14) 
9

>  <i_i_glide_lignum>  (14) 
303

>  <i_i_glide_posenum>  (14) 
2

>  <i_i_glide_rotatable_bonds>  (14) 
8

>  <i_lp_mmshare_version>  (14) 
65135

>  <i_m_ct_format>  (14) 
2

>  <i_m_source_file_index>  (14) 
1194

>  <i_qp_#NandO>  (14) 
5

>  <i_qp_#acid>  (14) 
0

>  <i_qp_#amide>  (14) 
0

>  <i_qp_#amidine>  (14) 
0

>  <i_qp_#amine>  (14) 
2

>  <i_qp_#in34>  (14) 
0

>  <i_qp_#in56>  (14) 
28

>  <i_qp_#metab>  (14) 
7

>  <i_qp_#nonHatm>  (14) 
32

>  <i_qp_#noncon>  (14) 
4

>  <i_qp_#ringatoms>  (14) 
28

>  <i_qp_#rotor>  (14) 
6

>  <i_qp_#rtvFG>  (14) 
0

>  <i_qp_#stars>  (14) 
1

>  <i_qp_CNS>  (14) 
2

>  <i_qp_HumanOralAbsorption>  (14) 
3

>  <i_qp_RuleOfFive>  (14) 
0

>  <i_qp_RuleOfThree>  (14) 
1

>  <i_sd_BIOSOLVEIT.INFINISEE\_REAGENT1\_NAME>  (14) 
8288996

>  <i_sd_BIOSOLVEIT.INFINISEE\_REAGENT2\_NAME>  (14) 
7547738

>  <i_sd_BIOSOLVEIT.INFINISEE\_RESULT\_RANK>  (14) 
39762

>  <i_sd_version>  (14) 
0

>  <b_lp_Chiralities_Consistent>  (14) 
1

>  <b_sd_chiral_flag>  (14) 
0

>  <canonical_id>  (14) 
ATP-HTVS-83F819F668B2

>  <compound_code>  (14) 
38177

>  <title>  (14) 
m_270004bbb____8288996____7547738

>  <variant>  (14) 
38177-1

>  <source_file>  (14) 
运行/运行/ATP-VSW/ATP-VSW-DOCK_HTVS_1-001_lib/ATP-VSW-DOCK_HTVS_1-001_lib

>  <canonical_smiles>  (14) 
c1ccc(-n2cc(C[NH2+]Cc3ccc(C[NH+]4CCCC4)cc3)c(-c3cccnc3)n2)cc1

>  <scaffold>  (14) 
c1ccc(-n2cc(C[NH2+]Cc3ccc(C[NH+]4CCCC4)cc3)c(-c3cccnc3)n2)cc1

>  <molecular_formula>  (14) 
C27H31N5+2

>  <acquisition_id_v2>  (14) 
ATP-ACQ2-0014

>  <selection_arm_v2>  (14) 
local_structure_bridge

>  <priority_v2>  (14) 
P0

$$$$
ATP-ACQ2-0015
     RDKit          3D

 42 45  0  0  0  0  0  0  0  0999 V2000
  196.3505  179.8453  149.9388 Cl  0  0  0  0  0  0  0  0  0  0  0  0
  196.6288  180.2817  151.5882 C   0  0  0  0  0  0  0  0  0  0  0  0
  196.9450  179.2856  152.5312 C   0  0  0  0  0  0  0  0  0  0  0  0
  197.1132  179.6217  153.8893 C   0  0  0  0  0  0  0  0  0  0  0  0
  197.0439  180.9653  154.3040 C   0  0  0  0  0  0  0  0  0  0  0  0
  196.7470  181.9685  153.3468 C   0  0  0  0  0  0  0  0  0  0  0  0
  196.5249  181.6242  151.9982 C   0  0  0  0  0  0  0  0  0  0  0  0
  197.2829  181.3174  155.7720 C   0  0  1  0  0  0  0  0  0  0  0  0
  198.6978  181.6740  156.1152 N   0  0  0  0  0  0  0  0  0  0  0  0
  199.0034  182.4643  157.1801 C   0  0  0  0  0  0  0  0  0  0  0  0
  200.1576  182.7297  157.5275 O   0  0  0  0  0  0  0  0  0  0  0  0
  197.8464  182.9958  157.9782 C   0  0  0  0  0  0  0  0  0  0  0  0
  196.5405  182.9315  157.4370 C   0  0  0  0  0  0  0  0  0  0  0  0
  196.3490  182.3478  156.1917 N   0  0  0  0  0  0  0  0  0  0  0  0
  195.4481  183.4612  158.1506 C   0  0  0  0  0  0  0  0  0  0  0  0
  195.6430  184.0518  159.4104 C   0  0  0  0  0  0  0  0  0  0  0  0
  196.9361  184.1099  159.9617 C   0  0  0  0  0  0  0  0  0  0  0  0
  198.0343  183.5864  159.2487 C   0  0  0  0  0  0  0  0  0  0  0  0
  199.7911  180.9953  155.3721 C   0  0  0  0  0  0  0  0  0  0  0  0
  200.1481  179.6058  155.8959 C   0  0  0  0  0  0  0  0  0  0  0  0
  200.8321  179.4667  157.1235 C   0  0  0  0  0  0  0  0  0  0  0  0
  201.1448  178.1869  157.6307 C   0  0  0  0  0  0  0  0  0  0  0  0
  200.7504  177.0331  156.9240 C   0  0  0  0  0  0  0  0  0  0  0  0
  200.0806  177.1661  155.6935 C   0  0  0  0  0  0  0  0  0  0  0  0
  199.8135  178.4447  155.1608 C   0  0  0  0  0  0  0  0  0  0  0  0
  197.0417  178.2590  152.2124 H   0  0  0  0  0  0  0  0  0  0  0  0
  197.3074  178.8471  154.6202 H   0  0  0  0  0  0  0  0  0  0  0  0
  196.6604  183.0043  153.6481 H   0  0  0  0  0  0  0  0  0  0  0  0
  196.2594  182.3906  151.2811 H   0  0  0  0  0  0  0  0  0  0  0  0
  197.0497  180.4295  156.3673 H   0  0  0  0  0  0  0  0  0  0  0  0
  195.3653  182.2626  155.8747 H   0  0  0  0  0  0  0  0  0  0  0  0
  194.4516  183.4158  157.7347 H   0  0  0  0  0  0  0  0  0  0  0  0
  194.7979  184.4558  159.9458 H   0  0  0  0  0  0  0  0  0  0  0  0
  197.0800  184.5546  160.9296 H   0  0  0  0  0  0  0  0  0  0  0  0
  199.0223  183.6408  159.6882 H   0  0  0  0  0  0  0  0  0  0  0  0
  199.5643  180.9333  154.3071 H   0  0  0  0  0  0  0  0  0  0  0  0
  200.6985  181.5967  155.3922 H   0  0  0  0  0  0  0  0  0  0  0  0
  201.1389  180.3406  157.6833 H   0  0  0  0  0  0  0  0  0  0  0  0
  201.6986  178.0898  158.5558 H   0  0  0  0  0  0  0  0  0  0  0  0
  200.9897  176.0518  157.3110 H   0  0  0  0  0  0  0  0  0  0  0  0
  199.7751  176.2818  155.1492 H   0  0  0  0  0  0  0  0  0  0  0  0
  199.3312  178.5186  154.1957 H   0  0  0  0  0  0  0  0  0  0  0  0
  1  2  1  0
  2  3  1  0
  2  7  2  0
  3  4  2  0
  3 26  1  0
  4  5  1  0
  4 27  1  0
  5  6  2  0
  5  8  1  0
  6  7  1  0
  6 28  1  0
  7 29  1  0
  8  9  1  0
  8 14  1  0
  8 30  1  1
  9 10  1  0
  9 19  1  0
 10 11  2  0
 10 12  1  0
 12 13  1  0
 12 18  2  0
 13 14  1  0
 13 15  2  0
 14 31  1  0
 15 16  1  0
 15 32  1  0
 16 17  2  0
 16 33  1  0
 17 18  1  0
 17 34  1  0
 18 35  1  0
 19 20  1  0
 19 36  1  0
 19 37  1  0
 20 21  2  0
 20 25  1  0
 21 22  1  0
 21 38  1  0
 22 23  2  0
 22 39  1  0
 23 24  1  0
 23 40  1  0
 24 25  2  0
 24 41  1  0
 25 42  1  0
M  END
>  <s_epik_Chemistry_Notes>  (15) 
This compound contains an acetal/aminal-like group ( X-CH(R)-Y where X, Y are N, S, or O) that may be acid/base labile, releasing an aldehyde.

>  <s_epik_cmdline>  (15) 
J2VwaWtfcHl0aG9uJywgJy1waCcsICc3LjAwMDAwMCcsICctcGh0JywgJzIuMDAwMDAwJywgJy1tcycsICcxNicsICctdG4nLCAnOCcsICctbWEnLCAnMjAwJywgJy1pbWFlJywgJzxpbmZpbGUubWFlPicsICctb21hZScsICc8b3V0ZmlsZS5tYWU+Jw==

>  <s_epik_input>  (15) 
W2NIXTFbY0hdW2NIXVtjSF1jKGMxMilbTkhdW0NAQEhdKGMoW2NIXVtjSF0zKVtjSF1bY0hdYzNDbClOKEMyPU8pW0NIMl1jNFtjSF1bY0hdW2NIXVtjSF1bY0hdNA==

>  <s_i_glide_gridfile>  (15) 
ATP-Grid

>  <s_lp_Force_Field>  (15) 
OPLS_2005

>  <s_lp_Variant>  (15) 
m_66bab____89518____10970556-1

>  <s_lp_label>  (15) 
1825_sdstereoexpander_1_neutralizer_1_epik_1_stereoizer_1

>  <s_m_source_file>  (15) 
ATP-VSW-LIGPREP-002-in.maegz

>  <s_sd_BIOSOLVEIT.INFINISEE\_QUERY\_NAME>  (15) 
Ref-Lig

>  <s_sd_BIOSOLVEIT.INFINISEE\_QUERY\_SMILES>  (15) 
S(c1nc2c(cc1C[NH2+]Cc3ccc(cc3)C[NH+](C)C)cccc2)Cc4ccccc4

>  <s_sd_BIOSOLVEIT.INFINISEE\_REACTION\_NAME>  (15) 
m_66bab

>  <s_sd_BIOSOLVEIT.INFINISEE\_REAGENT1\_SMILES>  (15) 
[R1*]N(C(=O)c1c(N[R2*])cccc1)Cc2ccccc2

>  <s_sd_BIOSOLVEIT.INFINISEE\_REAGENT2\_SMILES>  (15) 
[R1*]C1([R2*])CC(c2ccc(Cl)cc2)CCC1

>  <s_sd_BIOSOLVEIT.INFINISEE\_SPACE>  (15) 
REALSpace_44bn_2023-08

>  <s_vsw_compound_code>  (15) 
58370

>  <s_vsw_variant>  (15) 
58370-1

>  <r_epik_Charging_Adjusted_Penalty>  (15) 
0

>  <r_epik_Ionization_Penalty>  (15) 
0

>  <r_epik_Ionization_Penalty_Charging>  (15) 
0

>  <r_epik_Ionization_Penalty_Neutral>  (15) 
0

>  <r_epik_State_Penalty>  (15) 
-0

>  <r_i_docking_score>  (15) 
-4.2671466110497596

>  <r_i_glide_ecoul>  (15) 
-2.2772045135497998

>  <r_i_glide_eff_state_penalty>  (15) 
-0

>  <r_i_glide_einternal>  (15) 
2.12790727615356

>  <r_i_glide_emodel>  (15) 
-42.750448116341097

>  <r_i_glide_energy>  (15) 
-34.001861572265597

>  <r_i_glide_erotb>  (15) 
0.46946400384524201

>  <r_i_glide_esite>  (15) 
-0.16586820155439

>  <r_i_glide_evdw>  (15) 
-31.724657058715799

>  <r_i_glide_gscore>  (15) 
-4.2671466110497596

>  <r_i_glide_hbond>  (15) 
-0.16

>  <r_i_glide_ligand_efficiency>  (15) 
-0.17068586444198999

>  <r_i_glide_ligand_efficiency_ln>  (15) 
-1.0114416228837599

>  <r_i_glide_ligand_efficiency_sa>  (15) 
-0.499088494755076

>  <r_i_glide_lipo>  (15) 
-1.4521914742814399

>  <r_i_glide_metal>  (15) 
-0

>  <r_i_glide_rewards>  (15) 
-1.0307374090909101

>  <r_lp_Energy>  (15) 
28.234705999999999

>  <r_lp_tautomer_probability>  (15) 
1

>  <r_qp_ACxDN^.5/SA>  (15) 
0.0068897000000000003

>  <r_qp_CIQPlogS>  (15) 
-5.9550000000000001

>  <r_qp_EA(eV)>  (15) 
0.504

>  <r_qp_FISA>  (15) 
42.853000000000002

>  <r_qp_FOSA>  (15) 
41.268999999999998

>  <r_qp_IP(eV)>  (15) 
8.6370000000000005

>  <r_qp_Jm>  (15) 
0.35705695189570402

>  <r_qp_PISA>  (15) 
428.53300000000002

>  <r_qp_PSA>  (15) 
38.75

>  <r_qp_PercentHumanOralAbsorption>  (15) 
100

>  <r_qp_QPPCaco>  (15) 
3886.2240000000002

>  <r_qp_QPPMDCK>  (15) 
5053.7529999999997

>  <r_qp_QPlogBB>  (15) 
0.224

>  <r_qp_QPlogHERG>  (15) 
-5.8319999999999999

>  <r_qp_QPlogKhsa>  (15) 
0.626

>  <r_qp_QPlogKp>  (15) 
-0.60799999999999998

>  <r_qp_QPlogPC16>  (15) 
12.041

>  <r_qp_QPlogPo/w>  (15) 
4.6680000000000001

>  <r_qp_QPlogPoct>  (15) 
17.085000000000001

>  <r_qp_QPlogPw>  (15) 
9.3100000000000005

>  <r_qp_QPlogS>  (15) 
-5.3819999999999997

>  <r_qp_QPpolrz>  (15) 
38.679000000000002

>  <r_qp_SASA>  (15) 
580.57299999999998

>  <r_qp_SAamideO>  (15) 
0

>  <r_qp_SAfluorine>  (15) 
0

>  <r_qp_WPSA>  (15) 
67.918000000000006

>  <r_qp_accptHB>  (15) 
4

>  <r_qp_dip^2/V>  (15) 
0.027720600000000001

>  <r_qp_dipole>  (15) 
5.3949999999999996

>  <r_qp_donorHB>  (15) 
1

>  <r_qp_glob>  (15) 
0.86058659999999998

>  <r_qp_mol_MW>  (15) 
348.83100000000002

>  <r_qp_volume>  (15) 
1050.098

>  <r_sd_BIOSOLVEIT.INFINISEE\_FTREES\_SIMILARITY>  (15) 
0.90400000000000003

>  <r_sd_BIOSOLVEIT.LOGP>  (15) 
5.1067

>  <r_sd_BIOSOLVEIT.MOLECULAR\_WEIGHT>  (15) 
348.83100000000002

>  <r_sd_BIOSOLVEIT.TPSA>  (15) 
32.340000000000003

>  <i_epik_Tot_Q>  (15) 
0

>  <i_epik_Tot_abs_Q>  (15) 
0

>  <i_f3d_flags>  (15) 
0

>  <i_i_glide_confnum>  (15) 
2

>  <i_i_glide_lignum>  (15) 
643

>  <i_i_glide_posenum>  (15) 
19

>  <i_i_glide_rotatable_bonds>  (15) 
3

>  <i_lp_mmshare_version>  (15) 
65135

>  <i_m_ct_format>  (15) 
2

>  <i_m_source_file_index>  (15) 
1825

>  <i_qp_#NandO>  (15) 
3

>  <i_qp_#acid>  (15) 
0

>  <i_qp_#amide>  (15) 
0

>  <i_qp_#amidine>  (15) 
0

>  <i_qp_#amine>  (15) 
0

>  <i_qp_#in34>  (15) 
0

>  <i_qp_#in56>  (15) 
22

>  <i_qp_#metab>  (15) 
4

>  <i_qp_#nonHatm>  (15) 
25

>  <i_qp_#noncon>  (15) 
1

>  <i_qp_#ringatoms>  (15) 
22

>  <i_qp_#rotor>  (15) 
2

>  <i_qp_#rtvFG>  (15) 
0

>  <i_qp_#stars>  (15) 
0

>  <i_qp_CNS>  (15) 
1

>  <i_qp_HumanOralAbsorption>  (15) 
3

>  <i_qp_RuleOfFive>  (15) 
0

>  <i_qp_RuleOfThree>  (15) 
0

>  <i_sd_BIOSOLVEIT.INFINISEE\_REAGENT1\_NAME>  (15) 
89518

>  <i_sd_BIOSOLVEIT.INFINISEE\_REAGENT2\_NAME>  (15) 
10970556

>  <i_sd_BIOSOLVEIT.INFINISEE\_RESULT\_RANK>  (15) 
79470

>  <i_sd_version>  (15) 
0

>  <b_lp_Chiralities_Consistent>  (15) 
1

>  <b_sd_chiral_flag>  (15) 
0

>  <canonical_id>  (15) 
ATP-HTVS-40E764CABCB1

>  <compound_code>  (15) 
58370

>  <title>  (15) 
m_66bab____89518____10970556

>  <variant>  (15) 
58370-1

>  <source_file>  (15) 
运行/运行/ATP-VSW/ATP-VSW-DOCK_HTVS_1-002_lib.maegz

>  <canonical_smiles>  (15) 
O=C1c2ccccc2N[C@@H](c2ccc(Cl)cc2)N1Cc1ccccc1

>  <scaffold>  (15) 
O=C1c2ccccc2NC(c2ccccc2)N1Cc1ccccc1

>  <molecular_formula>  (15) 
C21H17ClN2O

>  <acquisition_id_v2>  (15) 
ATP-ACQ2-0015

>  <selection_arm_v2>  (15) 
scaffold_score_exploration

>  <priority_v2>  (15) 
P0

$$$$
ATP-ACQ2-0016
     RDKit          3D

 57 60  0  0  0  0  0  0  0  0999 V2000
  199.0484  178.6743  152.6399 S   0  0  0  0  0  0  0  0  0  0  0  0
  199.8587  178.5031  154.1909 C   0  0  0  0  0  0  0  0  0  0  0  0
  199.1884  179.2617  155.2048 C   0  0  0  0  0  0  0  0  0  0  0  0
  199.7684  179.2360  156.4993 C   0  0  0  0  0  0  0  0  0  0  0  0
  200.9261  178.4900  156.7860 C   0  0  0  0  0  0  0  0  0  0  0  0
  201.5467  177.7430  155.7718 C   0  0  0  0  0  0  0  0  0  0  0  0
  201.0133  177.7488  154.4718 C   0  0  0  0  0  0  0  0  0  0  0  0
  198.0059  179.9286  154.6885 C   0  0  0  0  0  0  0  0  0  0  0  0
  197.2158  180.7200  155.5701 C   0  0  0  0  0  0  0  0  0  0  0  0
  196.5870  181.4131  156.3505 C   0  0  0  0  0  0  0  0  0  0  0  0
  195.8794  182.2192  157.3553 C   0  0  1  0  0  0  0  0  0  0  0  0
  194.7000  181.4391  157.7190 N   0  0  0  0  0  0  0  0  0  0  0  0
  196.7518  182.5736  158.5752 C   0  0  0  0  0  0  0  0  0  0  0  0
  196.4153  183.9264  159.1853 C   0  0  0  0  0  0  0  0  0  0  0  0
  197.3801  184.9561  159.1857 C   0  0  0  0  0  0  0  0  0  0  0  0
  197.0706  186.2205  159.7252 C   0  0  0  0  0  0  0  0  0  0  0  0
  197.9967  187.2073  159.7120 F   0  0  0  0  0  0  0  0  0  0  0  0
  195.7972  186.4625  160.2706 C   0  0  0  0  0  0  0  0  0  0  0  0
  194.8320  185.4361  160.2739 C   0  0  0  0  0  0  0  0  0  0  0  0
  195.1410  184.1722  159.7384 C   0  0  0  0  0  0  0  0  0  0  0  0
  197.8125  179.6812  153.3444 C   0  0  0  0  0  0  0  0  0  0  0  0
  196.6959  180.1862  152.4743 C   0  0  0  0  0  0  0  0  0  0  0  0
  197.0581  181.3908  151.7010 N   0  0  0  0  0  0  0  0  0  0  0  0
  197.1463  181.3692  150.3456 C   0  0  0  0  0  0  0  0  0  0  0  0
  196.9462  180.3560  149.6632 O   0  0  0  0  0  0  0  0  0  0  0  0
  197.5251  182.6434  149.6436 C   0  0  0  0  0  0  0  0  0  0  0  0
  196.7339  183.8208  149.7380 C   0  0  0  0  0  0  0  0  0  0  0  0
  195.5592  183.8397  150.4391 O   0  0  0  0  0  0  0  0  0  0  0  0
  197.1477  185.0148  149.1185 C   0  0  0  0  0  0  0  0  0  0  0  0
  198.3361  185.0431  148.3746 C   0  0  0  0  0  0  0  0  0  0  0  0
  199.1116  183.8792  148.2440 C   0  0  0  0  0  0  0  0  0  0  0  0
  198.7101  182.6884  148.8793 C   0  0  0  0  0  0  0  0  0  0  0  0
  197.4521  182.5740  152.4966 C   0  0  0  0  0  0  0  0  0  0  0  0
  194.1476  181.2820  156.8941 H   0  0  0  0  0  0  0  0  0  0  0  0
  194.1494  181.9231  158.3923 H   0  0  0  0  0  0  0  0  0  0  0  0
  199.2984  179.7861  157.3012 H   0  0  0  0  0  0  0  0  0  0  0  0
  201.3373  178.4847  157.7866 H   0  0  0  0  0  0  0  0  0  0  0  0
  202.4323  177.1652  155.9954 H   0  0  0  0  0  0  0  0  0  0  0  0
  201.4955  177.1828  153.6890 H   0  0  0  0  0  0  0  0  0  0  0  0
  195.5431  183.1311  156.8555 H   0  0  0  0  0  0  0  0  0  0  0  0
  196.6381  181.8000  159.3316 H   0  0  0  0  0  0  0  0  0  0  0  0
  197.8067  182.5641  158.3155 H   0  0  0  0  0  0  0  0  0  0  0  0
  198.3633  184.7896  158.7665 H   0  0  0  0  0  0  0  0  0  0  0  0
  195.5637  187.4316  160.6845 H   0  0  0  0  0  0  0  0  0  0  0  0
  193.8508  185.6222  160.6870 H   0  0  0  0  0  0  0  0  0  0  0  0
  194.3892  183.3991  159.7492 H   0  0  0  0  0  0  0  0  0  0  0  0
  196.3367  179.3676  151.8394 H   0  0  0  0  0  0  0  0  0  0  0  0
  195.8403  180.4384  153.0954 H   0  0  0  0  0  0  0  0  0  0  0  0
  195.5417  183.2478  151.1794 H   0  0  0  0  0  0  0  0  0  0  0  0
  196.5549  185.9138  149.2221 H   0  0  0  0  0  0  0  0  0  0  0  0
  198.6585  185.9551  147.8985 H   0  0  0  0  0  0  0  0  0  0  0  0
  200.0208  183.9017  147.6616 H   0  0  0  0  0  0  0  0  0  0  0  0
  199.3190  181.8057  148.7776 H   0  0  0  0  0  0  0  0  0  0  0  0
  198.5108  182.7973  152.3122 H   0  0  0  0  0  0  0  0  0  0  0  0
  197.3187  182.4044  153.5633 H   0  0  0  0  0  0  0  0  0  0  0  0
  196.8488  183.4572  152.2659 H   0  0  0  0  0  0  0  0  0  0  0  0
  194.9750  180.5061  158.1126 H   0  0  0  0  0  0  0  0  0  0  0  0
  1  2  1  0
  1 21  1  0
  2  3  1  0
  2  7  2  0
  3  4  2  0
  3  8  1  0
  4  5  1  0
  4 36  1  0
  5  6  2  0
  5 37  1  0
  6  7  1  0
  6 38  1  0
  7 39  1  0
  8  9  1  0
  8 21  2  0
  9 10  3  0
 10 11  1  0
 11 12  1  0
 11 13  1  0
 11 40  1  6
 12 34  1  0
 12 35  1  0
 12 57  1  0
 13 14  1  0
 13 41  1  0
 13 42  1  0
 14 15  1  0
 14 20  2  0
 15 16  2  0
 15 43  1  0
 16 17  1  0
 16 18  1  0
 18 19  2  0
 18 44  1  0
 19 20  1  0
 19 45  1  0
 20 46  1  0
 21 22  1  0
 22 23  1  0
 22 47  1  0
 22 48  1  0
 23 24  1  0
 23 33  1  0
 24 25  2  0
 24 26  1  0
 26 27  1  0
 26 32  2  0
 27 28  1  0
 27 29  2  0
 28 49  1  0
 29 30  1  0
 29 50  1  0
 30 31  2  0
 30 51  1  0
 31 32  1  0
 31 52  1  0
 32 53  1  0
 33 54  1  0
 33 55  1  0
 33 56  1  0
M  CHG  1  12   1
M  END
>  <s_epik_cmdline>  (16) 
J2VwaWtfcHl0aG9uJywgJy1waCcsICc3LjAwMDAwMCcsICctcGh0JywgJzIuMDAwMDAwJywgJy1tcycsICcxNicsICctdG4nLCAnOCcsICctbWEnLCAnMjAwJywgJy1pbWFlJywgJzxpbmZpbGUubWFlPicsICctb21hZScsICc8b3V0ZmlsZS5tYWU+Jw==

>  <s_epik_input>  (16) 
W2NIXTFbY0hdW2NIXVtjSF1jKFtPSF0pYzFDKD1PKU4oW0NIM10pW0NIMl1jKHMyKWMoYyhjMjMpW2NIXVtjSF1bY0hdW2NIXTMpQyNDW0NAQEhdKFtOSDJdKVtDSDJdYzRbY0hdYyhGKVtjSF1bY0hdW2NIXTQ=

>  <s_i_glide_gridfile>  (16) 
ATP-Grid

>  <s_lp_Force_Field>  (16) 
OPLS_2005

>  <s_lp_Variant>  (16) 
rxn503c____EMOL478035____EMOL49259969____EMOL313110234-4

>  <s_lp_label>  (16) 
2644_sdstereoexpander_2_neutralizer_1_epik_2_stereoizer_1

>  <s_m_source_file>  (16) 
ATP-VSW-LIGPREP-001-in.maegz

>  <s_sd_BIOSOLVEIT.INFINISEE\_QUERY\_NAME>  (16) 
Ref-Lig

>  <s_sd_BIOSOLVEIT.INFINISEE\_QUERY\_SMILES>  (16) 
S(c1nc2c(cc1C[NH2+]Cc3ccc(cc3)C[NH+](C)C)cccc2)Cc4ccccc4

>  <s_sd_BIOSOLVEIT.INFINISEE\_REACTION\_NAME>  (16) 
rxn503c

>  <s_sd_BIOSOLVEIT.INFINISEE\_REAGENT1\_NAME>  (16) 
EMOL478035

>  <s_sd_BIOSOLVEIT.INFINISEE\_REAGENT1\_SMILES>  (16) 
O=C(O)c1c(O)cccc1

>  <s_sd_BIOSOLVEIT.INFINISEE\_REAGENT2\_NAME>  (16) 
EMOL49259969

>  <s_sd_BIOSOLVEIT.INFINISEE\_REAGENT2\_SMILES>  (16) 
ClC=1c2c(SC1CNC)cccc2

>  <s_sd_BIOSOLVEIT.INFINISEE\_REAGENT3\_NAME>  (16) 
EMOL313110234

>  <s_sd_BIOSOLVEIT.INFINISEE\_REAGENT3\_SMILES>  (16) 
Fc1cc(ccc1)CC(N)C#C

>  <s_sd_BIOSOLVEIT.INFINISEE\_SPACE>  (16) 
eXplore_7tr_2022-12

>  <s_vsw_compound_code>  (16) 
84577

>  <s_vsw_variant>  (16) 
84577-4

>  <r_epik_Charging_Adjusted_Penalty>  (16) 
1.21575498988359

>  <r_epik_Ionization_Penalty>  (16) 
0.63549999999999995

>  <r_epik_Ionization_Penalty_Charging>  (16) 
0.58030000000000004

>  <r_epik_Ionization_Penalty_Neutral>  (16) 
0.055199999999999999

>  <r_epik_State_Penalty>  (16) 
0.63549999999999995

>  <r_i_docking_score>  (16) 
-6.7131225125310401

>  <r_i_glide_ecoul>  (16) 
-15.4359216690063

>  <r_i_glide_eff_state_penalty>  (16) 
0.63549999999999995

>  <r_i_glide_einternal>  (16) 
8.6129016876220703

>  <r_i_glide_emodel>  (16) 
-81.203723621153699

>  <r_i_glide_energy>  (16) 
-52.396424293518102

>  <r_i_glide_erotb>  (16) 
0.46685289725444301

>  <r_i_glide_esite>  (16) 
-0.10000000000000001

>  <r_i_glide_evdw>  (16) 
-36.960502624511697

>  <r_i_glide_gscore>  (16) 
-7.3486225125310396

>  <r_i_glide_hbond>  (16) 
-0.53603289544564703

>  <r_i_glide_ligand_efficiency>  (16) 
-0.20342795492518301

>  <r_i_glide_ligand_efficiency_ln>  (16) 
-1.49296368809878

>  <r_i_glide_ligand_efficiency_sa>  (16) 
-0.65250214834287601

>  <r_i_glide_lipo>  (16) 
-2.0782676802436999

>  <r_i_glide_metal>  (16) 
-0

>  <r_i_glide_rewards>  (16) 
-0.93776145251959797

>  <r_lp_Energy>  (16) 
26.653186999999999

>  <r_lp_tautomer_probability>  (16) 
0.999999999997365

>  <r_qp_ACxDN^.5/SA>  (16) 
0.0084510999999999996

>  <r_qp_CIQPlogS>  (16) 
-7.1539999999999999

>  <r_qp_EA(eV)>  (16) 
0.88100000000000001

>  <r_qp_FISA>  (16) 
112.51900000000001

>  <r_qp_FOSA>  (16) 
128.64400000000001

>  <r_qp_IP(eV)>  (16) 
8.6780000000000008

>  <r_qp_Jm>  (16) 
0.018882791370007399

>  <r_qp_PISA>  (16) 
328.96499999999997

>  <r_qp_PSA>  (16) 
73.174000000000007

>  <r_qp_PercentHumanOralAbsorption>  (16) 
100

>  <r_qp_QPPCaco>  (16) 
211.72800000000001

>  <r_qp_QPPMDCK>  (16) 
210.81899999999999

>  <r_qp_QPlogBB>  (16) 
-0.33700000000000002

>  <r_qp_QPlogHERG>  (16) 
-5.218

>  <r_qp_QPlogKhsa>  (16) 
0.97899999999999998

>  <r_qp_QPlogKp>  (16) 
-3.633

>  <r_qp_QPlogPC16>  (16) 
13.834

>  <r_qp_QPlogPo/w>  (16) 
4.9690000000000003

>  <r_qp_QPlogPoct>  (16) 
20.396999999999998

>  <r_qp_QPlogPw>  (16) 
8.8900000000000006

>  <r_qp_QPlogS>  (16) 
-3.7519999999999998

>  <r_qp_QPpolrz>  (16) 
42.901000000000003

>  <r_qp_SASA>  (16) 
627.52700000000004

>  <r_qp_SAamideO>  (16) 
0

>  <r_qp_SAfluorine>  (16) 
30.637

>  <r_qp_WPSA>  (16) 
57.399000000000001

>  <r_qp_accptHB>  (16) 
3.75

>  <r_qp_dip^2/V>  (16) 
0.051728999999999997

>  <r_qp_dipole>  (16) 
8.1739999999999995

>  <r_qp_donorHB>  (16) 
2

>  <r_qp_glob>  (16) 
0.91403829999999997

>  <r_qp_mol_MW>  (16) 
458.54899999999998

>  <r_qp_volume>  (16) 
1291.6600000000001

>  <r_sd_BIOSOLVEIT.INFINISEE\_FTREES\_SIMILARITY>  (16) 
0.91000000000000003

>  <r_sd_BIOSOLVEIT.LOGP>  (16) 
4.2229000000000001

>  <r_sd_BIOSOLVEIT.MOLECULAR\_WEIGHT>  (16) 
459.56200000000001

>  <r_sd_BIOSOLVEIT.TPSA>  (16) 
68.180000000000007

>  <i_epik_Tot_Q>  (16) 
1

>  <i_epik_Tot_abs_Q>  (16) 
1

>  <i_f3d_flags>  (16) 
0

>  <i_i_glide_confnum>  (16) 
4

>  <i_i_glide_lignum>  (16) 
1133

>  <i_i_glide_posenum>  (16) 
19

>  <i_i_glide_rotatable_bonds>  (16) 
9

>  <i_lp_mmshare_version>  (16) 
65135

>  <i_m_ct_format>  (16) 
2

>  <i_m_source_file_index>  (16) 
2644

>  <i_qp_#NandO>  (16) 
4

>  <i_qp_#acid>  (16) 
0

>  <i_qp_#amide>  (16) 
0

>  <i_qp_#amidine>  (16) 
0

>  <i_qp_#amine>  (16) 
1

>  <i_qp_#in34>  (16) 
0

>  <i_qp_#in56>  (16) 
21

>  <i_qp_#metab>  (16) 
7

>  <i_qp_#nonHatm>  (16) 
33

>  <i_qp_#noncon>  (16) 
0

>  <i_qp_#ringatoms>  (16) 
21

>  <i_qp_#rotor>  (16) 
9

>  <i_qp_#rtvFG>  (16) 
0

>  <i_qp_#stars>  (16) 
0

>  <i_qp_CNS>  (16) 
1

>  <i_qp_HumanOralAbsorption>  (16) 
3

>  <i_qp_RuleOfFive>  (16) 
0

>  <i_qp_RuleOfThree>  (16) 
1

>  <i_sd_BIOSOLVEIT.INFINISEE\_RESULT\_RANK>  (16) 
45595

>  <i_sd_version>  (16) 
0

>  <b_lp_Chiralities_Consistent>  (16) 
1

>  <b_sd_chiral_flag>  (16) 
0

>  <canonical_id>  (16) 
ATP-HTVS-65F4836C7042

>  <compound_code>  (16) 
84577

>  <title>  (16) 
rxn503c____EMOL478035____EMOL49259969____EMOL313110234

>  <variant>  (16) 
84577-4

>  <source_file>  (16) 
运行/运行/ATP-VSW/ATP-VSW-DOCK_HTVS_1-001_lib/ATP-VSW-DOCK_HTVS_1-001_lib

>  <canonical_smiles>  (16) 
CN(Cc1sc2ccccc2c1C#C[C@@H]([NH3+])Cc1cccc(F)c1)C(=O)c1ccccc1O

>  <scaffold>  (16) 
O=C(NCc1sc2ccccc2c1C#CCCc1ccccc1)c1ccccc1

>  <molecular_formula>  (16) 
C27H24FN2O2S+

>  <acquisition_id_v2>  (16) 
ATP-ACQ2-0016

>  <selection_arm_v2>  (16) 
exploitation

>  <priority_v2>  (16) 
P0

$$$$
ATP-ACQ2-0017
     RDKit          3D

 61 64  0  0  0  0  0  0  0  0999 V2000
  203.5499  174.1891  155.5879 O   0  0  0  0  0  0  0  0  0  0  0  0
  202.8333  175.3826  155.3568 C   0  0  0  0  0  0  0  0  0  0  0  0
  201.6157  175.4446  156.2845 C   0  0  0  0  0  0  0  0  0  0  0  0
  200.8233  176.7178  156.1021 C   0  0  0  0  0  0  0  0  0  0  0  0
  200.7654  177.6756  157.1379 C   0  0  0  0  0  0  0  0  0  0  0  0
  200.0408  178.8656  156.9544 C   0  0  0  0  0  0  0  0  0  0  0  0
  199.3493  179.0810  155.7511 C   0  0  0  0  0  0  0  0  0  0  0  0
  199.4189  178.1374  154.7116 C   0  0  0  0  0  0  0  0  0  0  0  0
  200.1437  176.9532  154.8883 C   0  0  0  0  0  0  0  0  0  0  0  0
  198.5729  180.3552  155.5425 C   0  0  0  0  0  0  0  0  0  0  0  0
  197.5636  180.6437  156.5581 N   0  0  0  0  0  0  0  0  0  0  0  0
  196.5572  181.7386  156.2735 C   0  0  0  0  0  0  0  0  0  0  0  0
  197.2323  182.9815  155.6988 C   0  0  0  0  0  0  0  0  0  0  0  0
  197.3884  184.3221  156.2010 C   0  0  0  0  0  0  0  0  0  0  0  0
  198.0040  185.1127  155.3097 N   0  0  0  0  0  0  0  0  0  0  0  0
  198.2665  184.3370  154.2455 N   0  0  0  0  0  0  0  0  0  0  0  0
  197.8440  183.0603  154.4731 C   0  0  0  0  0  0  0  0  0  0  0  0
  198.9790  184.8499  153.0702 C   0  0  0  0  0  0  0  0  0  0  0  0
  198.2639  184.5819  151.7412 C   0  0  0  0  0  0  0  0  0  0  0  0
  197.9179  183.2619  151.3299 C   0  0  0  0  0  0  0  0  0  0  0  0
  197.1716  183.0571  150.1465 C   0  0  0  0  0  0  0  0  0  0  0  0
  196.8472  184.1442  149.3169 C   0  0  0  0  0  0  0  0  0  0  0  0
  197.2482  185.4436  149.6785 C   0  0  0  0  0  0  0  0  0  0  0  0
  197.9439  185.6631  150.8869 C   0  0  0  0  0  0  0  0  0  0  0  0
  196.9590  184.9160  157.4664 C   0  0  0  0  0  0  0  0  0  0  0  0
  196.7341  186.3076  157.5573 C   0  0  0  0  0  0  0  0  0  0  0  0
  196.2498  186.8890  158.7362 C   0  0  0  0  0  0  0  0  0  0  0  0
  195.9532  186.0561  159.8310 C   0  0  0  0  0  0  0  0  0  0  0  0
  196.1760  184.6676  159.7681 C   0  0  0  0  0  0  0  0  0  0  0  0
  196.7146  184.0756  158.5930 C   0  0  0  0  0  0  0  0  0  0  0  0
  195.4539  186.6588  161.1233 C   0  0  0  0  0  0  0  0  0  0  0  0
  196.9951  179.7886  156.7276 H   0  0  0  0  0  0  0  0  0  0  0  0
  203.0100  173.4515  155.3435 H   0  0  0  0  0  0  0  0  0  0  0  0
  203.4894  176.2349  155.5390 H   0  0  0  0  0  0  0  0  0  0  0  0
  202.5301  175.4247  154.3108 H   0  0  0  0  0  0  0  0  0  0  0  0
  200.9496  174.5994  156.1134 H   0  0  0  0  0  0  0  0  0  0  0  0
  201.9491  175.3807  157.3141 H   0  0  0  0  0  0  0  0  0  0  0  0
  201.2802  177.5160  158.0751 H   0  0  0  0  0  0  0  0  0  0  0  0
  200.0067  179.6045  157.7376 H   0  0  0  0  0  0  0  0  0  0  0  0
  198.9123  178.3142  153.7707 H   0  0  0  0  0  0  0  0  0  0  0  0
  200.1742  176.2281  154.0833 H   0  0  0  0  0  0  0  0  0  0  0  0
  199.3416  181.1368  155.5154 H   0  0  0  0  0  0  0  0  0  0  0  0
  198.1080  180.2461  154.5602 H   0  0  0  0  0  0  0  0  0  0  0  0
  195.8518  181.3506  155.5216 H   0  0  0  0  0  0  0  0  0  0  0  0
  195.9948  181.8926  157.1835 H   0  0  0  0  0  0  0  0  0  0  0  0
  198.0206  182.2980  153.7495 H   0  0  0  0  0  0  0  0  0  0  0  0
  199.1426  185.9218  153.1924 H   0  0  0  0  0  0  0  0  0  0  0  0
  199.9679  184.3979  153.0412 H   0  0  0  0  0  0  0  0  0  0  0  0
  198.1997  182.3780  151.8713 H   0  0  0  0  0  0  0  0  0  0  0  0
  196.8773  182.0531  149.8899 H   0  0  0  0  0  0  0  0  0  0  0  0
  196.3219  183.9688  148.3842 H   0  0  0  0  0  0  0  0  0  0  0  0
  197.0159  186.2734  149.0192 H   0  0  0  0  0  0  0  0  0  0  0  0
  198.2298  186.6777  151.1624 H   0  0  0  0  0  0  0  0  0  0  0  0
  196.9214  186.9504  156.6955 H   0  0  0  0  0  0  0  0  0  0  0  0
  196.1179  187.9648  158.7929 H   0  0  0  0  0  0  0  0  0  0  0  0
  195.9548  184.0294  160.6081 H   0  0  0  0  0  0  0  0  0  0  0  0
  196.9132  183.0330  158.5839 H   0  0  0  0  0  0  0  0  0  0  0  0
  194.7910  185.9642  161.6364 H   0  0  0  0  0  0  0  0  0  0  0  0
  194.9326  187.6001  160.9446 H   0  0  0  0  0  0  0  0  0  0  0  0
  196.3279  186.8493  161.7395 H   0  0  0  0  0  0  0  0  0  0  0  0
  198.0179  180.8146  157.4303 H   0  0  0  0  0  0  0  0  0  0  0  0
  1  2  1  0
  1 33  1  0
  2  3  1  0
  2 34  1  0
  2 35  1  0
  3  4  1  0
  3 36  1  0
  3 37  1  0
  4  5  1  0
  4  9  2  0
  5  6  2  0
  5 38  1  0
  6  7  1  0
  6 39  1  0
  7  8  2  0
  7 10  1  0
  8  9  1  0
  8 40  1  0
  9 41  1  0
 10 11  1  0
 10 42  1  0
 10 43  1  0
 11 12  1  0
 11 32  1  0
 11 61  1  0
 12 13  1  0
 12 44  1  0
 12 45  1  0
 13 14  1  0
 13 17  2  0
 14 15  2  0
 14 25  1  0
 15 16  1  0
 16 17  1  0
 16 18  1  0
 17 46  1  0
 18 19  1  0
 18 47  1  0
 18 48  1  0
 19 20  2  0
 19 24  1  0
 20 21  1  0
 20 49  1  0
 21 22  2  0
 21 50  1  0
 22 23  1  0
 22 51  1  0
 23 24  2  0
 23 52  1  0
 24 53  1  0
 25 26  1  0
 25 30  2  0
 26 27  2  0
 26 54  1  0
 27 28  1  0
 27 55  1  0
 28 29  2  0
 28 31  1  0
 29 30  1  0
 29 56  1  0
 30 57  1  0
 31 58  1  0
 31 59  1  0
 31 60  1  0
M  CHG  1  11   1
M  END
>  <s_epik_cmdline>  (17) 
J2VwaWtfcHl0aG9uJywgJy1waCcsICc3LjAwMDAwMCcsICctcGh0JywgJzIuMDAwMDAwJywgJy1tcycsICcxNicsICctdG4nLCAnOCcsICctbWEnLCAnMjAwJywgJy1pbWFlJywgJzxpbmZpbGUubWFlPicsICctb21hZScsICc8b3V0ZmlsZS5tYWU+Jw==

>  <s_epik_input>  (17) 
W09IXVtDSDJdW0NIMl1jMVtjSF1bY0hdYyhbY0hdW2NIXTEpW0NIMl1bTkhdW0NIMl1jMmMoLWMzW2NIXVtjSF1jKFtDSDNdKVtjSF1bY0hdMylubihbY0hdMilbQ0gyXWM0W2NIXVtjSF1bY0hdW2NIXVtjSF00

>  <s_i_glide_gridfile>  (17) 
ATP-Grid

>  <s_lp_Force_Field>  (17) 
OPLS_2005

>  <s_lp_Variant>  (17) 
m_207bba____13440778____121441-1

>  <s_lp_label>  (17) 
739_sdstereoexpander_1_neutralizer_1_epik_1_stereoizer_1

>  <s_m_source_file>  (17) 
ATP-VSW-LIGPREP-003-in.maegz

>  <s_sd_BIOSOLVEIT.INFINISEE\_QUERY\_NAME>  (17) 
Ref-Lig

>  <s_sd_BIOSOLVEIT.INFINISEE\_QUERY\_SMILES>  (17) 
S(c1nc2c(cc1C[NH2+]Cc3ccc(cc3)C[NH+](C)C)cccc2)Cc4ccccc4

>  <s_sd_BIOSOLVEIT.INFINISEE\_REACTION\_NAME>  (17) 
m_207bba

>  <s_sd_BIOSOLVEIT.INFINISEE\_REAGENT1\_SMILES>  (17) 
[R1*]NCc1ccc(cc1)CCO

>  <s_sd_BIOSOLVEIT.INFINISEE\_REAGENT2\_SMILES>  (17) 
[R1*]CC=1C(=NN(C1)Cc2ccccc2)c3ccc(cc3)C

>  <s_sd_BIOSOLVEIT.INFINISEE\_SPACE>  (17) 
REALSpace_44bn_2023-08

>  <s_vsw_compound_code>  (17) 
23619

>  <s_vsw_variant>  (17) 
23619-1

>  <r_epik_Charging_Adjusted_Penalty>  (17) 
0.160437715824854

>  <r_epik_Ionization_Penalty>  (17) 
0.080199999999999994

>  <r_epik_Ionization_Penalty_Charging>  (17) 
0.080199999999999994

>  <r_epik_Ionization_Penalty_Neutral>  (17) 
0

>  <r_epik_State_Penalty>  (17) 
0.080199999999999994

>  <r_i_docking_score>  (17) 
-5.6434771541446098

>  <r_i_glide_ecoul>  (17) 
-8.8682765960693395

>  <r_i_glide_eff_state_penalty>  (17) 
0.080199999999999994

>  <r_i_glide_einternal>  (17) 
5.3821835517883301

>  <r_i_glide_emodel>  (17) 
-66.386005424229893

>  <r_i_glide_energy>  (17) 
-46.570642471313498

>  <r_i_glide_erotb>  (17) 
1.0428028864665499

>  <r_i_glide_esite>  (17) 
-0.10016074972571901

>  <r_i_glide_evdw>  (17) 
-37.702365875244098

>  <r_i_glide_gscore>  (17) 
-5.7236771541446103

>  <r_i_glide_hbond>  (17) 
-0.17657034806461799

>  <r_i_glide_ligand_efficiency>  (17) 
-0.182047650133697

>  <r_i_glide_ligand_efficiency_ln>  (17) 
-1.2727770500636599

>  <r_i_glide_ligand_efficiency_sa>  (17) 
-0.57188096528870203

>  <r_i_glide_lipo>  (17) 
-2.4531159778300302

>  <r_i_glide_metal>  (17) 
-0

>  <r_i_glide_rewards>  (17) 
-0.82127318181817999

>  <r_lp_Energy>  (17) 
14.019138999999999

>  <r_lp_tautomer_probability>  (17) 
1

>  <r_qp_ACxDN^.5/SA>  (17) 
0.0093287999999999999

>  <r_qp_CIQPlogS>  (17) 
-5.9470000000000001

>  <r_qp_EA(eV)>  (17) 
0.33700000000000002

>  <r_qp_FISA>  (17) 
82.162000000000006

>  <r_qp_FOSA>  (17) 
232.12200000000001

>  <r_qp_IP(eV)>  (17) 
8.827

>  <r_qp_Jm>  (17) 
0.012083315600034301

>  <r_qp_PISA>  (17) 
398.21499999999997

>  <r_qp_PSA>  (17) 
53.381

>  <r_qp_PercentHumanOralAbsorption>  (17) 
100

>  <r_qp_QPPCaco>  (17) 
410.82299999999998

>  <r_qp_QPPMDCK>  (17) 
209.23599999999999

>  <r_qp_QPlogBB>  (17) 
-0.38100000000000001

>  <r_qp_QPlogHERG>  (17) 
-6.9500000000000002

>  <r_qp_QPlogKhsa>  (17) 
0.92100000000000004

>  <r_qp_QPlogKp>  (17) 
-2.8290000000000002

>  <r_qp_QPlogPC16>  (17) 
14.538

>  <r_qp_QPlogPo/w>  (17) 
4.9710000000000001

>  <r_qp_QPlogPoct>  (17) 
20.829000000000001

>  <r_qp_QPlogPw>  (17) 
10.275

>  <r_qp_QPlogS>  (17) 
-4.7030000000000003

>  <r_qp_QPpolrz>  (17) 
45.731999999999999

>  <r_qp_SASA>  (17) 
712.5

>  <r_qp_SAamideO>  (17) 
0

>  <r_qp_SAfluorine>  (17) 
0

>  <r_qp_WPSA>  (17) 
0

>  <r_qp_accptHB>  (17) 
4.7000000000000002

>  <r_qp_dip^2/V>  (17) 
0.019314499999999998

>  <r_qp_dipole>  (17) 
5.0990000000000002

>  <r_qp_donorHB>  (17) 
2

>  <r_qp_glob>  (17) 
0.82740760000000002

>  <r_qp_mol_MW>  (17) 
411.54599999999999

>  <r_qp_volume>  (17) 
1345.8879999999999

>  <r_sd_BIOSOLVEIT.INFINISEE\_FTREES\_SIMILARITY>  (17) 
0.92700000000000005

>  <r_sd_BIOSOLVEIT.LOGP>  (17) 
3.7052200000000002

>  <r_sd_BIOSOLVEIT.MOLECULAR\_WEIGHT>  (17) 
412.55399999999997

>  <r_sd_BIOSOLVEIT.TPSA>  (17) 
54.659999999999997

>  <i_epik_Tot_Q>  (17) 
1

>  <i_epik_Tot_abs_Q>  (17) 
1

>  <i_f3d_flags>  (17) 
0

>  <i_i_glide_confnum>  (17) 
5

>  <i_i_glide_lignum>  (17) 
315

>  <i_i_glide_posenum>  (17) 
18

>  <i_i_glide_rotatable_bonds>  (17) 
10

>  <i_lp_mmshare_version>  (17) 
65135

>  <i_m_ct_format>  (17) 
2

>  <i_m_source_file_index>  (17) 
739

>  <i_qp_#NandO>  (17) 
4

>  <i_qp_#acid>  (17) 
0

>  <i_qp_#amide>  (17) 
0

>  <i_qp_#amidine>  (17) 
0

>  <i_qp_#amine>  (17) 
1

>  <i_qp_#in34>  (17) 
0

>  <i_qp_#in56>  (17) 
23

>  <i_qp_#metab>  (17) 
7

>  <i_qp_#nonHatm>  (17) 
31

>  <i_qp_#noncon>  (17) 
0

>  <i_qp_#ringatoms>  (17) 
23

>  <i_qp_#rotor>  (17) 
9

>  <i_qp_#rtvFG>  (17) 
0

>  <i_qp_#stars>  (17) 
0

>  <i_qp_CNS>  (17) 
1

>  <i_qp_HumanOralAbsorption>  (17) 
3

>  <i_qp_RuleOfFive>  (17) 
0

>  <i_qp_RuleOfThree>  (17) 
1

>  <i_sd_BIOSOLVEIT.INFINISEE\_REAGENT1\_NAME>  (17) 
13440778

>  <i_sd_BIOSOLVEIT.INFINISEE\_REAGENT2\_NAME>  (17) 
121441

>  <i_sd_BIOSOLVEIT.INFINISEE\_RESULT\_RANK>  (17) 
7061

>  <i_sd_version>  (17) 
0

>  <b_lp_Chiralities_Consistent>  (17) 
1

>  <b_sd_chiral_flag>  (17) 
0

>  <canonical_id>  (17) 
ATP-HTVS-D53BE49171F7

>  <compound_code>  (17) 
23619

>  <title>  (17) 
m_207bba____13440778____121441

>  <variant>  (17) 
23619-1

>  <source_file>  (17) 
运行/运行/ATP-VSW/ATP-VSW-DOCK_HTVS_1-003_lib/ATP-VSW-DOCK_HTVS_1-003_lib.mae

>  <canonical_smiles>  (17) 
Cc1ccc(-c2nn(Cc3ccccc3)cc2C[NH2+]Cc2ccc(CCO)cc2)cc1

>  <scaffold>  (17) 
c1ccc(C[NH2+]Cc2cn(Cc3ccccc3)nc2-c2ccccc2)cc1

>  <molecular_formula>  (17) 
C27H30N3O+

>  <acquisition_id_v2>  (17) 
ATP-ACQ2-0017

>  <selection_arm_v2>  (17) 
local_structure_bridge

>  <priority_v2>  (17) 
P0

$$$$
ATP-ACQ2-0018
     RDKit          3D

 66 69  0  0  0  0  0  0  0  0999 V2000
  197.6340  183.4910  151.9406 S   0  0  0  0  0  0  0  0  0  0  0  0
  198.3171  184.1093  150.7917 O   0  0  0  0  0  0  0  0  0  0  0  0
  197.9948  183.8904  153.3098 O   0  0  0  0  0  0  0  0  0  0  0  0
  195.9532  183.7873  151.7313 N   0  0  0  0  0  0  0  0  0  0  0  0
  197.7129  181.6994  151.7684 C   0  0  0  0  0  0  0  0  0  0  0  0
  197.3263  180.8047  152.8007 C   0  0  0  0  0  0  0  0  0  0  0  0
  197.4055  179.4161  152.5618 C   0  0  0  0  0  0  0  0  0  0  0  0
  197.8677  178.9081  151.3354 C   0  0  0  0  0  0  0  0  0  0  0  0
  198.2291  179.7958  150.3082 C   0  0  0  0  0  0  0  0  0  0  0  0
  198.1432  181.1857  150.5247 C   0  0  0  0  0  0  0  0  0  0  0  0
  196.8497  181.2759  154.1723 C   0  0  0  0  0  0  0  0  0  0  0  0
  197.8631  181.1427  155.2295 N   0  0  0  0  0  0  0  0  0  0  0  0
  197.6226  181.9079  156.3861 C   0  0  0  0  0  0  0  0  0  0  0  0
  196.3471  182.1380  156.7774 N   0  0  0  0  0  0  0  0  0  0  0  0
  196.1047  182.8102  157.9044 C   0  0  0  0  0  0  0  0  0  0  0  0
  197.0924  183.2732  158.6634 N   0  0  0  0  0  0  0  0  0  0  0  0
  198.3653  183.0974  158.3320 C   0  0  0  0  0  0  0  0  0  0  0  0
  198.7078  182.3591  157.1806 C   0  0  0  0  0  0  0  0  0  0  0  0
  200.0857  182.1775  156.8528 C   0  0  0  0  0  0  0  0  0  0  0  0
  201.0724  182.7237  157.7030 C   0  0  0  0  0  0  0  0  0  0  0  0
  200.7219  183.4891  158.8290 C   0  0  0  0  0  0  0  0  0  0  0  0
  199.3581  183.6661  159.1469 C   0  0  0  0  0  0  0  0  0  0  0  0
  194.7930  183.0468  158.3357 N   0  0  0  0  0  0  0  0  0  0  0  0
  194.3873  184.0874  159.2567 C   0  0  0  0  0  0  0  0  0  0  0  0
  195.2251  185.3789  159.4364 C   0  0  0  0  0  0  0  0  0  0  0  0
  195.1103  186.1258  160.6368 C   0  0  0  0  0  0  0  0  0  0  0  0
  195.9591  187.2328  160.8650 C   0  0  0  0  0  0  0  0  0  0  0  0
  196.9213  187.5958  159.8913 C   0  0  0  0  0  0  0  0  0  0  0  0
  197.7589  188.6989  160.1405 N   0  0  0  0  0  0  0  0  0  0  0  0
  198.4631  189.3912  159.0807 C   0  0  0  0  0  0  0  0  0  0  0  0
  199.5050  190.3234  159.7035 C   0  0  0  0  0  0  0  0  0  0  0  0
  197.4820  190.1666  158.1851 C   0  0  0  0  0  0  0  0  0  0  0  0
  197.0300  186.8422  158.7058 C   0  0  0  0  0  0  0  0  0  0  0  0
  196.1518  185.8019  158.4487 C   0  0  0  0  0  0  0  0  0  0  0  0
  198.2640  179.7845  155.6101 C   0  0  0  0  0  0  0  0  0  0  0  0
  195.8048  184.7852  151.6372 H   0  0  0  0  0  0  0  0  0  0  0  0
  195.3728  183.4743  152.5257 H   0  0  0  0  0  0  0  0  0  0  0  0
  197.1365  178.7166  153.3407 H   0  0  0  0  0  0  0  0  0  0  0  0
  197.9527  177.8394  151.1910 H   0  0  0  0  0  0  0  0  0  0  0  0
  198.5781  179.4088  149.3610 H   0  0  0  0  0  0  0  0  0  0  0  0
  198.4166  181.8572  149.7259 H   0  0  0  0  0  0  0  0  0  0  0  0
  196.4829  182.3004  154.1302 H   0  0  0  0  0  0  0  0  0  0  0  0
  195.9642  180.6943  154.4429 H   0  0  0  0  0  0  0  0  0  0  0  0
  200.3644  181.6235  155.9807 H   0  0  0  0  0  0  0  0  0  0  0  0
  202.1203  182.5221  157.4900 H   0  0  0  0  0  0  0  0  0  0  0  0
  201.4830  183.8988  159.4698 H   0  0  0  0  0  0  0  0  0  0  0  0
  199.0898  184.2886  159.9806 H   0  0  0  0  0  0  0  0  0  0  0  0
  194.1596  182.9449  157.5391 H   0  0  0  0  0  0  0  0  0  0  0  0
  193.3457  184.3858  159.0952 H   0  0  0  0  0  0  0  0  0  0  0  0
  194.4064  183.5183  160.1859 H   0  0  0  0  0  0  0  0  0  0  0  0
  194.4036  185.8367  161.4013 H   0  0  0  0  0  0  0  0  0  0  0  0
  195.8470  187.8117  161.7708 H   0  0  0  0  0  0  0  0  0  0  0  0
  197.7916  189.0935  161.0767 H   0  0  0  0  0  0  0  0  0  0  0  0
  199.0050  188.6657  158.4693 H   0  0  0  0  0  0  0  0  0  0  0  0
  200.0663  190.8436  158.9320 H   0  0  0  0  0  0  0  0  0  0  0  0
  200.2118  189.7590  160.3124 H   0  0  0  0  0  0  0  0  0  0  0  0
  199.0314  191.0648  160.3458 H   0  0  0  0  0  0  0  0  0  0  0  0
  198.0130  190.6902  157.3934 H   0  0  0  0  0  0  0  0  0  0  0  0
  196.9235  190.9045  158.7607 H   0  0  0  0  0  0  0  0  0  0  0  0
  196.7567  189.5021  157.7148 H   0  0  0  0  0  0  0  0  0  0  0  0
  197.8233  187.0290  157.9993 H   0  0  0  0  0  0  0  0  0  0  0  0
  196.2625  185.2216  157.5156 H   0  0  0  0  0  0  0  0  0  0  0  0
  198.9692  179.7675  156.4442 H   0  0  0  0  0  0  0  0  0  0  0  0
  198.7729  179.2898  154.7827 H   0  0  0  0  0  0  0  0  0  0  0  0
  197.3974  179.1837  155.9067 H   0  0  0  0  0  0  0  0  0  0  0  0
  196.8472  183.8160  159.5225 H   0  0  0  0  0  0  0  0  0  0  0  0
  1  2  2  0
  1  3  2  0
  1  4  1  0
  1  5  1  0
  4 36  1  0
  4 37  1  0
  5  6  1  0
  5 10  2  0
  6  7  2  0
  6 11  1  0
  7  8  1  0
  7 38  1  0
  8  9  2  0
  8 39  1  0
  9 10  1  0
  9 40  1  0
 10 41  1  0
 11 12  1  0
 11 42  1  0
 11 43  1  0
 12 13  1  0
 12 35  1  0
 13 14  2  0
 13 18  1  0
 14 15  1  0
 15 16  2  0
 15 23  1  0
 16 17  1  0
 16 66  1  0
 17 18  1  0
 17 22  2  0
 18 19  2  0
 19 20  1  0
 19 44  1  0
 20 21  2  0
 20 45  1  0
 21 22  1  0
 21 46  1  0
 22 47  1  0
 23 24  1  0
 23 48  1  0
 24 25  1  0
 24 49  1  0
 24 50  1  0
 25 26  1  0
 25 34  2  0
 26 27  2  0
 26 51  1  0
 27 28  1  0
 27 52  1  0
 28 29  1  0
 28 33  2  0
 29 30  1  0
 29 53  1  0
 30 31  1  0
 30 32  1  0
 30 54  1  0
 31 55  1  0
 31 56  1  0
 31 57  1  0
 32 58  1  0
 32 59  1  0
 32 60  1  0
 33 34  1  0
 33 61  1  0
 34 62  1  0
 35 63  1  0
 35 64  1  0
 35 65  1  0
M  CHG  1  16   1
M  END
>  <s_epik_cmdline>  (18) 
J2VwaWtfcHl0aG9uJywgJy1waCcsICc3LjAwMDAwMCcsICctcGh0JywgJzIuMDAwMDAwJywgJy1tcycsICcxNicsICctdG4nLCAnOCcsICctbWEnLCAnMjAwJywgJy1pbWFlJywgJzxpbmZpbGUubWFlPicsICctb21hZScsICc8b3V0ZmlsZS5tYWU+Jw==

>  <s_epik_input>  (18) 
W2NIXTFbY0hdW2NIXVtjSF1jKGMxUyg9TykoPU8pW05IMl0pW0NIMl1OKFtDSDNdKWMoYyhjMjMpW2NIXVtjSF1bY0hdW2NIXTMpbmMobjIpW05IXVtDSDJdYzRbY0hdW2NIXWMoW2NIXVtjSF00KVtOSF1bQ0hdKFtDSDNdKVtDSDNd

>  <s_i_glide_gridfile>  (18) 
ATP-Grid

>  <s_lp_Force_Field>  (18) 
OPLS_2005

>  <s_lp_Variant>  (18) 
m_282030aaa____21909402____22360182____21979096-1

>  <s_lp_label>  (18) 
958_sdstereoexpander_1_neutralizer_1_epik_1_stereoizer_1

>  <s_m_source_file>  (18) 
ATP-VSW-LIGPREP-002-in.maegz

>  <s_sd_BIOSOLVEIT.INFINISEE\_QUERY\_NAME>  (18) 
Ref-Lig

>  <s_sd_BIOSOLVEIT.INFINISEE\_QUERY\_SMILES>  (18) 
S(c1nc2c(cc1C[NH2+]Cc3ccc(cc3)C[NH+](C)C)cccc2)Cc4ccccc4

>  <s_sd_BIOSOLVEIT.INFINISEE\_REACTION\_NAME>  (18) 
m_282030aaa

>  <s_sd_BIOSOLVEIT.INFINISEE\_REAGENT1\_SMILES>  (18) 
[R1*]N(Cc1c(S(=O)(=O)N)cccc1)C

>  <s_sd_BIOSOLVEIT.INFINISEE\_REAGENT2\_SMILES>  (18) 
[R2*]c1nc([R1*])c2c(n1)cccc2

>  <s_sd_BIOSOLVEIT.INFINISEE\_REAGENT3\_SMILES>  (18) 
[R2*]NCc1ccc(NC(C)C)cc1

>  <s_sd_BIOSOLVEIT.INFINISEE\_SPACE>  (18) 
REALSpace_44bn_2023-08

>  <s_vsw_compound_code>  (18) 
30626

>  <s_vsw_variant>  (18) 
30626-1

>  <r_epik_Charging_Adjusted_Penalty>  (18) 
0.15519838282513701

>  <r_epik_Ionization_Penalty>  (18) 
0.14480000000000001

>  <r_epik_Ionization_Penalty_Charging>  (18) 
0.0074999999999999997

>  <r_epik_Ionization_Penalty_Neutral>  (18) 
0.13730000000000001

>  <r_epik_State_Penalty>  (18) 
0.1477

>  <r_i_docking_score>  (18) 
-4.0897493608392201

>  <r_i_glide_ecoul>  (18) 
-2.7119989395141602

>  <r_i_glide_eff_state_penalty>  (18) 
0.1477

>  <r_i_glide_einternal>  (18) 
3.1175794601440399

>  <r_i_glide_emodel>  (18) 
-52.331234615037701

>  <r_i_glide_energy>  (18) 
-37.6269884109497

>  <r_i_glide_erotb>  (18) 
0.58962600263380904

>  <r_i_glide_esite>  (18) 
-0.26253920380387402

>  <r_i_glide_evdw>  (18) 
-34.914989471435497

>  <r_i_glide_gscore>  (18) 
-4.2374493608392196

>  <r_i_glide_hbond>  (18) 
-0.41449868932360601

>  <r_i_glide_ligand_efficiency>  (18) 
-0.116849981738263

>  <r_i_glide_ligand_efficiency_ln>  (18) 
-0.89779075180087098

>  <r_i_glide_ligand_efficiency_sa>  (18) 
-0.38222403815720601

>  <r_i_glide_lipo>  (18) 
-1.94041547402847

>  <r_i_glide_metal>  (18) 
-0

>  <r_i_glide_rewards>  (18) 
-0.057072681818181301

>  <r_lp_Energy>  (18) 
35.362909000000002

>  <r_qp_ACxDN^.5/SA>  (18) 
0.020335300000000001

>  <r_qp_CIQPlogS>  (18) 
-6.8940000000000001

>  <r_qp_EA(eV)>  (18) 
0.76200000000000001

>  <r_qp_FISA>  (18) 
149.04599999999999

>  <r_qp_FOSA>  (18) 
244.06

>  <r_qp_IP(eV)>  (18) 
8.0459999999999994

>  <r_qp_Jm>  (18) 
0.0034492657475082501

>  <r_qp_PISA>  (18) 
442.87799999999999

>  <r_qp_PSA>  (18) 
108.291

>  <r_qp_PercentHumanOralAbsorption>  (18) 
100

>  <r_qp_QPPCaco>  (18) 
382.37799999999999

>  <r_qp_QPPMDCK>  (18) 
175.01499999999999

>  <r_qp_QPlogBB>  (18) 
-1.7170000000000001

>  <r_qp_QPlogHERG>  (18) 
-7.3710000000000004

>  <r_qp_QPlogKhsa>  (18) 
0.51700000000000002

>  <r_qp_QPlogKp>  (18) 
-1.746

>  <r_qp_QPlogPC16>  (18) 
17.757000000000001

>  <r_qp_QPlogPo/w>  (18) 
4.3570000000000002

>  <r_qp_QPlogPoct>  (18) 
28.492000000000001

>  <r_qp_QPlogPw>  (18) 
17.782

>  <r_qp_QPlogS>  (18) 
-6.407

>  <r_qp_QPpolrz>  (18) 
53.069000000000003

>  <r_qp_SASA>  (18) 
835.98400000000004

>  <r_qp_SAamideO>  (18) 
0

>  <r_qp_SAfluorine>  (18) 
0

>  <r_qp_WPSA>  (18) 
0

>  <r_qp_accptHB>  (18) 
8.5

>  <r_qp_dip^2/V>  (18) 
0.0171562

>  <r_qp_dipole>  (18) 
5.1310000000000002

>  <r_qp_donorHB>  (18) 
4

>  <r_qp_glob>  (18) 
0.7696518

>  <r_qp_mol_MW>  (18) 
490.62200000000001

>  <r_qp_volume>  (18) 
1534.585

>  <r_sd_BIOSOLVEIT.INFINISEE\_FTREES\_SIMILARITY>  (18) 
0.91700000000000004

>  <r_sd_BIOSOLVEIT.LOGP>  (18) 
4.9965999999999999

>  <r_sd_BIOSOLVEIT.MOLECULAR\_WEIGHT>  (18) 
490.62799999999999

>  <r_sd_BIOSOLVEIT.TPSA>  (18) 
113.23999999999999

>  <i_epik_Tot_Q>  (18) 
1

>  <i_epik_Tot_abs_Q>  (18) 
1

>  <i_f3d_flags>  (18) 
0

>  <i_i_glide_confnum>  (18) 
8

>  <i_i_glide_lignum>  (18) 
297

>  <i_i_glide_posenum>  (18) 
10

>  <i_i_glide_rotatable_bonds>  (18) 
9

>  <i_lp_mmshare_version>  (18) 
65135

>  <i_m_ct_format>  (18) 
2

>  <i_m_source_file_index>  (18) 
958

>  <i_qp_#NandO>  (18) 
8

>  <i_qp_#acid>  (18) 
0

>  <i_qp_#amide>  (18) 
0

>  <i_qp_#amidine>  (18) 
0

>  <i_qp_#amine>  (18) 
0

>  <i_qp_#in34>  (18) 
0

>  <i_qp_#in56>  (18) 
22

>  <i_qp_#metab>  (18) 
4

>  <i_qp_#nonHatm>  (18) 
35

>  <i_qp_#noncon>  (18) 
0

>  <i_qp_#ringatoms>  (18) 
22

>  <i_qp_#rotor>  (18) 
10

>  <i_qp_#rtvFG>  (18) 
0

>  <i_qp_#stars>  (18) 
0

>  <i_qp_CNS>  (18) 
-2

>  <i_qp_HumanOralAbsorption>  (18) 
1

>  <i_qp_RuleOfFive>  (18) 
0

>  <i_qp_RuleOfThree>  (18) 
1

>  <i_sd_BIOSOLVEIT.INFINISEE\_REAGENT1\_NAME>  (18) 
21909402

>  <i_sd_BIOSOLVEIT.INFINISEE\_REAGENT2\_NAME>  (18) 
22360182

>  <i_sd_BIOSOLVEIT.INFINISEE\_REAGENT3\_NAME>  (18) 
21979096

>  <i_sd_BIOSOLVEIT.INFINISEE\_RESULT\_RANK>  (18) 
23045

>  <i_sd_version>  (18) 
0

>  <b_lp_Chiralities_Consistent>  (18) 
1

>  <b_sd_chiral_flag>  (18) 
0

>  <canonical_id>  (18) 
ATP-HTVS-E7DA22DA6C24

>  <compound_code>  (18) 
30626

>  <title>  (18) 
m_282030aaa____21909402____22360182____21979096

>  <variant>  (18) 
30626-1

>  <source_file>  (18) 
运行/运行/ATP-VSW/ATP-VSW-DOCK_HTVS_1-002_lib.maegz

>  <canonical_smiles>  (18) 
CC(C)Nc1ccc(CNc2nc(N(C)Cc3ccccc3S(N)(=O)=O)c3ccccc3[nH+]2)cc1

>  <scaffold>  (18) 
c1ccc(CNc2nc(NCc3ccccc3)c3ccccc3[nH+]2)cc1

>  <molecular_formula>  (18) 
C26H31N6O2S+

>  <acquisition_id_v2>  (18) 
ATP-ACQ2-0018

>  <selection_arm_v2>  (18) 
scaffold_score_exploration

>  <priority_v2>  (18) 
P0

$$$$
ATP-ACQ2-0019
     RDKit          3D

 55 57  0  0  0  0  0  0  0  0999 V2000
  197.3542  180.0368  154.2634 S   0  0  0  0  0  0  0  0  0  0  0  0
  197.4825  180.6462  152.6304 C   0  0  0  0  0  0  0  0  0  0  0  0
  197.6683  179.7220  151.5191 C   0  0  0  0  0  0  0  0  0  0  0  0
  197.1736  180.0486  150.2400 C   0  0  0  0  0  0  0  0  0  0  0  0
  197.3510  179.1661  149.1563 C   0  0  0  0  0  0  0  0  0  0  0  0
  198.0363  177.9441  149.3234 C   0  0  0  0  0  0  0  0  0  0  0  0
  198.2301  177.0240  148.1836 N   0  0  0  0  0  0  0  0  0  0  0  0
  198.6641  175.9003  148.4119 O   0  0  0  0  0  0  0  0  0  0  0  0
  197.9492  177.4391  147.0600 O   0  0  0  0  0  0  0  0  0  0  0  0
  198.5362  177.6193  150.6071 C   0  0  0  0  0  0  0  0  0  0  0  0
  198.3607  178.5053  151.6888 C   0  0  0  0  0  0  0  0  0  0  0  0
  197.3672  182.0117  152.5972 C   0  0  0  0  0  0  0  0  0  0  0  0
  197.1857  182.5849  153.8864 C   0  0  0  0  0  0  0  0  0  0  0  0
  197.1449  181.6481  154.8900 C   0  0  0  0  0  0  0  0  0  0  0  0
  197.0131  181.9158  156.3444 C   0  0  0  0  0  0  0  0  0  0  0  0
  195.6586  181.5828  156.8551 N   0  0  0  0  0  0  0  0  0  0  0  0
  195.4295  181.7647  158.3053 C   0  0  1  0  0  0  0  0  0  0  0  0
  195.7301  183.1826  158.8291 C   0  0  0  0  0  0  0  0  0  0  0  0
  197.0732  183.5597  159.0582 C   0  0  0  0  0  0  0  0  0  0  0  0
  197.3765  184.8703  159.5036 C   0  0  0  0  0  0  0  0  0  0  0  0
  196.3412  185.7682  159.7998 C   0  0  0  0  0  0  0  0  0  0  0  0
  195.0021  185.3723  159.6292 C   0  0  0  0  0  0  0  0  0  0  0  0
  194.6945  184.0965  159.1214 C   0  0  0  0  0  0  0  0  0  0  0  0
  196.6294  187.1694  160.2823 C   0  0  0  0  0  0  0  0  0  0  0  0
  196.7185  188.1739  159.1955 N   0  0  0  0  0  0  0  0  0  0  0  0
  197.7388  187.8718  158.1619 C   0  0  0  0  0  0  0  0  0  0  0  0
  196.8843  189.5421  159.7383 C   0  0  0  0  0  0  0  0  0  0  0  0
  194.0050  181.2739  158.6255 C   0  0  0  0  0  0  0  0  0  0  0  0
  194.9433  182.0863  156.3293 H   0  0  0  0  0  0  0  0  0  0  0  0
  196.6494  180.9790  150.0876 H   0  0  0  0  0  0  0  0  0  0  0  0
  196.9617  179.4400  148.1873 H   0  0  0  0  0  0  0  0  0  0  0  0
  199.0694  176.6929  150.7645 H   0  0  0  0  0  0  0  0  0  0  0  0
  198.7658  178.2429  152.6559 H   0  0  0  0  0  0  0  0  0  0  0  0
  197.4307  182.6245  151.7084 H   0  0  0  0  0  0  0  0  0  0  0  0
  197.0889  183.6510  154.0332 H   0  0  0  0  0  0  0  0  0  0  0  0
  197.7600  181.3506  156.9019 H   0  0  0  0  0  0  0  0  0  0  0  0
  197.2151  182.9746  156.4894 H   0  0  0  0  0  0  0  0  0  0  0  0
  196.1188  181.0972  158.8271 H   0  0  0  0  0  0  0  0  0  0  0  0
  197.8879  182.8790  158.8678 H   0  0  0  0  0  0  0  0  0  0  0  0
  198.4092  185.1600  159.6156 H   0  0  0  0  0  0  0  0  0  0  0  0
  194.1954  186.0428  159.8458 H   0  0  0  0  0  0  0  0  0  0  0  0
  193.6510  183.8686  158.9755 H   0  0  0  0  0  0  0  0  0  0  0  0
  195.8408  187.4649  160.9707 H   0  0  0  0  0  0  0  0  0  0  0  0
  197.5466  187.1653  160.8551 H   0  0  0  0  0  0  0  0  0  0  0  0
  198.7367  187.8390  158.5996 H   0  0  0  0  0  0  0  0  0  0  0  0
  197.7386  188.6319  157.3794 H   0  0  0  0  0  0  0  0  0  0  0  0
  197.5541  186.9194  157.6627 H   0  0  0  0  0  0  0  0  0  0  0  0
  197.8241  189.6310  160.2867 H   0  0  0  0  0  0  0  0  0  0  0  0
  196.0706  189.7902  160.4207 H   0  0  0  0  0  0  0  0  0  0  0  0
  196.8819  190.2817  158.9367 H   0  0  0  0  0  0  0  0  0  0  0  0
  193.9031  181.3214  159.7022 H   0  0  0  0  0  0  0  0  0  0  0  0
  193.8203  180.2369  158.3379 H   0  0  0  0  0  0  0  0  0  0  0  0
  193.2330  181.8692  158.1355 H   0  0  0  0  0  0  0  0  0  0  0  0
  195.8261  188.1646  158.7222 H   0  0  0  0  0  0  0  0  0  0  0  0
  195.5299  180.5778  156.7524 H   0  0  0  0  0  0  0  0  0  0  0  0
  1  2  1  0
  1 14  1  0
  2  3  1  0
  2 12  2  0
  3  4  1  0
  3 11  2  0
  4  5  2  0
  4 30  1  0
  5  6  1  0
  5 31  1  0
  6  7  1  0
  6 10  2  0
  7  8  1  0
  7  9  2  0
 10 11  1  0
 10 32  1  0
 11 33  1  0
 12 13  1  0
 12 34  1  0
 13 14  2  0
 13 35  1  0
 14 15  1  0
 15 16  1  0
 15 36  1  0
 15 37  1  0
 16 17  1  0
 16 29  1  0
 16 55  1  0
 17 18  1  0
 17 28  1  0
 17 38  1  1
 18 19  1  0
 18 23  2  0
 19 20  2  0
 19 39  1  0
 20 21  1  0
 20 40  1  0
 21 22  2  0
 21 24  1  0
 22 23  1  0
 22 41  1  0
 23 42  1  0
 24 25  1  0
 24 43  1  0
 24 44  1  0
 25 26  1  0
 25 27  1  0
 25 54  1  0
 26 45  1  0
 26 46  1  0
 26 47  1  0
 27 48  1  0
 27 49  1  0
 27 50  1  0
 28 51  1  0
 28 52  1  0
 28 53  1  0
M  CHG  4   7   1   8  -1  16   1  25   1
M  END
>  <s_epik_cmdline>  (19) 
J2VwaWtfcHl0aG9uJywgJy1waCcsICc3LjAwMDAwMCcsICctcGh0JywgJzIuMDAwMDAwJywgJy1tcycsICcxNicsICctdG4nLCAnOCcsICctbWEnLCAnMjAwJywgJy1pbWFlJywgJzxpbmZpbGUubWFlPicsICctb21hZScsICc8b3V0ZmlsZS5tYWU+Jw==

>  <s_epik_input>  (19) 
W08tXVtOK10oPU8pYyhbY0hdW2NIXTEpW2NIXVtjSF1jMS1jMnNjKFtjSF1bY0hdMilbQ0gyXVtOSF1bQ0BIXShbQ0gzXSljM1tjSF1bY0hdYyhbY0hdW2NIXTMpW0NIMl1OKFtDSDNdKVtDSDNd

>  <s_i_glide_gridfile>  (19) 
ATP-Grid

>  <s_lp_Force_Field>  (19) 
OPLS_2005

>  <s_lp_Variant>  (19) 
m_270004beb____23853920____7548658-1

>  <s_lp_label>  (19) 
1528_sdstereoexpander_1_neutralizer_1_epik_1_stereoizer_1

>  <s_m_source_file>  (19) 
ATP-VSW-LIGPREP-001-in.maegz

>  <s_sd_BIOSOLVEIT.INFINISEE\_QUERY\_NAME>  (19) 
Ref-Lig

>  <s_sd_BIOSOLVEIT.INFINISEE\_QUERY\_SMILES>  (19) 
S(c1nc2c(cc1C[NH2+]Cc3ccc(cc3)C[NH+](C)C)cccc2)Cc4ccccc4

>  <s_sd_BIOSOLVEIT.INFINISEE\_REACTION\_NAME>  (19) 
m_270004beb

>  <s_sd_BIOSOLVEIT.INFINISEE\_REAGENT1\_SMILES>  (19) 
[R1*]NC(c1ccc(cc1)CN(C)C)C

>  <s_sd_BIOSOLVEIT.INFINISEE\_REAGENT2\_SMILES>  (19) 
[R1*]CC=1SC(c2ccc([N+]([O-])=O)cc2)=CC1

>  <s_sd_BIOSOLVEIT.INFINISEE\_SPACE>  (19) 
REALSpace_44bn_2023-08

>  <s_vsw_compound_code>  (19) 
48865

>  <s_vsw_variant>  (19) 
48865-1

>  <r_epik_Charging_Adjusted_Penalty>  (19) 
0.27771382847655102

>  <r_epik_Ionization_Penalty>  (19) 
0.13919999999999999

>  <r_epik_Ionization_Penalty_Charging>  (19) 
0.13919999999999999

>  <r_epik_Ionization_Penalty_Neutral>  (19) 
0

>  <r_epik_State_Penalty>  (19) 
0.13850000000000001

>  <r_i_docking_score>  (19) 
-6.2837009351896898

>  <r_i_glide_ecoul>  (19) 
-13.430567741394

>  <r_i_glide_eff_state_penalty>  (19) 
0.13850000000000001

>  <r_i_glide_einternal>  (19) 
2.5059111118316699

>  <r_i_glide_emodel>  (19) 
-77.708544089105004

>  <r_i_glide_energy>  (19) 
-48.682250022888198

>  <r_i_glide_erotb>  (19) 
0.74322268203703001

>  <r_i_glide_esite>  (19) 
-0.096936023504967203

>  <r_i_glide_evdw>  (19) 
-35.251682281494098

>  <r_i_glide_gscore>  (19) 
-6.4222009351896903

>  <r_i_glide_hbond>  (19) 
-0.351174724379614

>  <r_i_glide_ligand_efficiency>  (19) 
-0.22441789054248901

>  <r_i_glide_ligand_efficiency_ln>  (19) 
-1.45046267331815

>  <r_i_glide_ligand_efficiency_sa>  (19) 
-0.68146489075599503

>  <r_i_glide_lipo>  (19) 
-1.7976335906091401

>  <r_i_glide_metal>  (19) 
-0

>  <r_i_glide_rewards>  (19) 
-1.14251000344919

>  <r_lp_Energy>  (19) 
16.462059

>  <r_qp_ACxDN^.5/SA>  (19) 
0.0071938000000000002

>  <r_qp_CIQPlogS>  (19) 
-4.3810000000000002

>  <r_qp_EA(eV)>  (19) 
1.536

>  <r_qp_FISA>  (19) 
110.886

>  <r_qp_FOSA>  (19) 
261.35399999999998

>  <r_qp_IP(eV)>  (19) 
9.109

>  <r_qp_Jm>  (19) 
0.00071185762238452205

>  <r_qp_PISA>  (19) 
232.119

>  <r_qp_PSA>  (19) 
62.805

>  <r_qp_PercentHumanOralAbsorption>  (19) 
78.841999999999999

>  <r_qp_QPPCaco>  (19) 
54.722000000000001

>  <r_qp_QPPMDCK>  (19) 
34.216999999999999

>  <r_qp_QPlogBB>  (19) 
0.032000000000000001

>  <r_qp_QPlogHERG>  (19) 
-6.0650000000000004

>  <r_qp_QPlogKhsa>  (19) 
0.75800000000000001

>  <r_qp_QPlogKp>  (19) 
-6.1989999999999998

>  <r_qp_QPlogPC16>  (19) 
12.298999999999999

>  <r_qp_QPlogPo/w>  (19) 
3.5499999999999998

>  <r_qp_QPlogPoct>  (19) 
18.132000000000001

>  <r_qp_QPlogPw>  (19) 
7.9180000000000001

>  <r_qp_QPlogS>  (19) 
-2.5459999999999998

>  <r_qp_QPpolrz>  (19) 
40.005000000000003

>  <r_qp_SASA>  (19) 
625.53999999999996

>  <r_qp_SAamideO>  (19) 
0

>  <r_qp_SAfluorine>  (19) 
0

>  <r_qp_WPSA>  (19) 
21.18

>  <r_qp_accptHB>  (19) 
4.5

>  <r_qp_dip^2/V>  (19) 
0.069368299999999994

>  <r_qp_dipole>  (19) 
9.1630000000000003

>  <r_qp_donorHB>  (19) 
1

>  <r_qp_glob>  (19) 
0.87803489999999995

>  <r_qp_mol_MW>  (19) 
395.51799999999997

>  <r_qp_volume>  (19) 
1210.326

>  <r_sd_BIOSOLVEIT.INFINISEE\_FTREES\_SIMILARITY>  (19) 
0.90700000000000003

>  <r_sd_BIOSOLVEIT.LOGP>  (19) 
2.7924000000000002

>  <r_sd_BIOSOLVEIT.MOLECULAR\_WEIGHT>  (19) 
397.53899999999999

>  <r_sd_BIOSOLVEIT.TPSA>  (19) 
66.870000000000005

>  <i_epik_Tot_Q>  (19) 
2

>  <i_epik_Tot_abs_Q>  (19) 
4

>  <i_f3d_flags>  (19) 
0

>  <i_i_glide_confnum>  (19) 
4

>  <i_i_glide_lignum>  (19) 
399

>  <i_i_glide_posenum>  (19) 
9

>  <i_i_glide_rotatable_bonds>  (19) 
8

>  <i_lp_mmshare_version>  (19) 
65135

>  <i_m_ct_format>  (19) 
2

>  <i_m_source_file_index>  (19) 
1528

>  <i_qp_#NandO>  (19) 
5

>  <i_qp_#acid>  (19) 
0

>  <i_qp_#amide>  (19) 
0

>  <i_qp_#amidine>  (19) 
0

>  <i_qp_#amine>  (19) 
2

>  <i_qp_#in34>  (19) 
0

>  <i_qp_#in56>  (19) 
17

>  <i_qp_#metab>  (19) 
7

>  <i_qp_#nonHatm>  (19) 
28

>  <i_qp_#noncon>  (19) 
0

>  <i_qp_#ringatoms>  (19) 
17

>  <i_qp_#rotor>  (19) 
7

>  <i_qp_#rtvFG>  (19) 
0

>  <i_qp_#stars>  (19) 
0

>  <i_qp_CNS>  (19) 
1

>  <i_qp_HumanOralAbsorption>  (19) 
2

>  <i_qp_RuleOfFive>  (19) 
0

>  <i_qp_RuleOfThree>  (19) 
1

>  <i_sd_BIOSOLVEIT.INFINISEE\_REAGENT1\_NAME>  (19) 
23853920

>  <i_sd_BIOSOLVEIT.INFINISEE\_REAGENT2\_NAME>  (19) 
7548658

>  <i_sd_BIOSOLVEIT.INFINISEE\_RESULT\_RANK>  (19) 
61087

>  <i_sd_version>  (19) 
0

>  <b_lp_Chiralities_Consistent>  (19) 
1

>  <b_sd_chiral_flag>  (19) 
0

>  <canonical_id>  (19) 
ATP-HTVS-60D4F7FF4B6B

>  <compound_code>  (19) 
48865

>  <title>  (19) 
m_270004beb____23853920____7548658

>  <variant>  (19) 
48865-1

>  <source_file>  (19) 
运行/运行/ATP-VSW/ATP-VSW-DOCK_HTVS_1-001_lib/ATP-VSW-DOCK_HTVS_1-001_lib

>  <canonical_smiles>  (19) 
C[C@@H]([NH2+]Cc1ccc(-c2ccc([N+](=O)[O-])cc2)s1)c1ccc(C[NH+](C)C)cc1

>  <scaffold>  (19) 
c1ccc(C[NH2+]Cc2ccc(-c3ccccc3)s2)cc1

>  <molecular_formula>  (19) 
C22H27N3O2S+2

>  <acquisition_id_v2>  (19) 
ATP-ACQ2-0019

>  <selection_arm_v2>  (19) 
exploitation

>  <priority_v2>  (19) 
P0

$$$$
ATP-ACQ2-0020
     RDKit          3D

 59 61  0  0  0  0  0  0  0  0999 V2000
  199.3536  186.0185  145.9358 Cl  0  0  0  0  0  0  0  0  0  0  0  0
  198.8764  185.4214  147.4801 C   0  0  0  0  0  0  0  0  0  0  0  0
  199.8119  185.3522  148.5273 C   0  0  0  0  0  0  0  0  0  0  0  0
  199.4222  184.8702  149.7934 C   0  0  0  0  0  0  0  0  0  0  0  0
  198.0986  184.4369  150.0098 C   0  0  0  0  0  0  0  0  0  0  0  0
  197.7192  183.9710  151.3002 N   0  0  0  0  0  0  0  0  0  0  0  0
  197.1645  182.7590  151.4552 C   0  0  0  0  0  0  0  0  0  0  0  0
  195.9518  182.6011  151.4386 O   0  0  0  0  0  0  0  0  0  0  0  0
  198.1133  181.6319  151.6953 C   0  0  0  0  0  0  0  0  0  0  0  0
  198.4147  181.0324  152.9657 C   0  0  0  0  0  0  0  0  0  0  0  0
  197.8540  181.4975  154.1775 N   0  0  0  0  0  0  0  0  0  0  0  0
  198.2014  180.9541  155.4826 C   0  0  0  0  0  0  0  0  0  0  0  0
  197.7109  181.8326  156.6174 C   0  0  0  0  0  0  0  0  0  0  0  0
  196.3478  181.8432  156.9702 C   0  0  0  0  0  0  0  0  0  0  0  0
  195.8921  182.6424  158.0366 C   0  0  0  0  0  0  0  0  0  0  0  0
  196.8008  183.4469  158.7570 C   0  0  0  0  0  0  0  0  0  0  0  0
  198.1670  183.4343  158.4051 C   0  0  0  0  0  0  0  0  0  0  0  0
  198.6167  182.6374  157.3342 C   0  0  0  0  0  0  0  0  0  0  0  0
  196.3170  184.3370  159.8921 C   0  0  0  0  0  0  0  0  0  0  0  0
  195.8136  185.6496  159.4065 N   0  0  0  0  0  0  0  0  0  0  0  0
  196.8213  186.4349  158.6481 C   0  0  0  0  0  0  0  0  0  0  0  0
  195.2202  186.4544  160.4957 C   0  0  0  0  0  0  0  0  0  0  0  0
  199.3037  179.9958  152.8545 C   0  0  0  0  0  0  0  0  0  0  0  0
  199.7949  179.7207  151.2052 S   0  0  0  0  0  0  0  0  0  0  0  0
  198.7906  181.0380  150.6570 C   0  0  0  0  0  0  0  0  0  0  0  0
  197.9482  184.8371  152.4646 C   0  0  0  0  0  0  0  0  0  0  0  0
  196.8457  184.7667  153.5541 C   0  0  0  0  0  0  0  0  0  0  0  0
  197.1515  185.6434  154.6895 N   0  0  0  0  0  0  0  0  0  0  0  0
  197.1565  184.5130  148.9546 C   0  0  0  0  0  0  0  0  0  0  0  0
  197.5464  185.0022  147.6921 C   0  0  0  0  0  0  0  0  0  0  0  0
  196.4209  185.5303  155.3725 H   0  0  0  0  0  0  0  0  0  0  0  0
  197.1738  186.6098  154.3861 H   0  0  0  0  0  0  0  0  0  0  0  0
  200.8328  185.6759  148.3643 H   0  0  0  0  0  0  0  0  0  0  0  0
  200.1451  184.8294  150.5926 H   0  0  0  0  0  0  0  0  0  0  0  0
  197.0674  182.1305  154.1539 H   0  0  0  0  0  0  0  0  0  0  0  0
  197.7800  179.9554  155.6003 H   0  0  0  0  0  0  0  0  0  0  0  0
  199.2830  180.8506  155.5627 H   0  0  0  0  0  0  0  0  0  0  0  0
  195.6417  181.2229  156.4362 H   0  0  0  0  0  0  0  0  0  0  0  0
  194.8381  182.6254  158.2851 H   0  0  0  0  0  0  0  0  0  0  0  0
  198.8777  184.0357  158.9498 H   0  0  0  0  0  0  0  0  0  0  0  0
  199.6663  182.6423  157.0690 H   0  0  0  0  0  0  0  0  0  0  0  0
  195.5286  183.8125  160.4373 H   0  0  0  0  0  0  0  0  0  0  0  0
  197.1270  184.4968  160.6053 H   0  0  0  0  0  0  0  0  0  0  0  0
  197.6788  186.6693  159.2802 H   0  0  0  0  0  0  0  0  0  0  0  0
  196.4020  187.3734  158.2862 H   0  0  0  0  0  0  0  0  0  0  0  0
  197.1873  185.9046  157.7699 H   0  0  0  0  0  0  0  0  0  0  0  0
  195.9557  186.6739  161.2722 H   0  0  0  0  0  0  0  0  0  0  0  0
  194.3772  185.9318  160.9504 H   0  0  0  0  0  0  0  0  0  0  0  0
  194.8528  187.4071  160.1133 H   0  0  0  0  0  0  0  0  0  0  0  0
  199.6863  179.3622  153.6438 H   0  0  0  0  0  0  0  0  0  0  0  0
  198.7562  181.2756  149.6028 H   0  0  0  0  0  0  0  0  0  0  0  0
  198.9257  184.5914  152.8839 H   0  0  0  0  0  0  0  0  0  0  0  0
  197.9991  185.8639  152.0990 H   0  0  0  0  0  0  0  0  0  0  0  0
  195.8799  185.0330  153.1382 H   0  0  0  0  0  0  0  0  0  0  0  0
  196.7199  183.7772  153.9787 H   0  0  0  0  0  0  0  0  0  0  0  0
  196.1263  184.2263  149.1116 H   0  0  0  0  0  0  0  0  0  0  0  0
  196.8226  185.0847  146.8983 H   0  0  0  0  0  0  0  0  0  0  0  0
  198.0319  185.3805  155.1017 H   0  0  0  0  0  0  0  0  0  0  0  0
  195.0562  185.4377  158.7715 H   0  0  0  0  0  0  0  0  0  0  0  0
  1  2  1  0
  2  3  1  0
  2 30  2  0
  3  4  2  0
  3 33  1  0
  4  5  1  0
  4 34  1  0
  5  6  1  0
  5 29  2  0
  6  7  1  0
  6 26  1  0
  7  8  2  0
  7  9  1  0
  9 10  1  0
  9 25  2  0
 10 11  1  0
 10 23  2  0
 11 12  1  0
 11 35  1  0
 12 13  1  0
 12 36  1  0
 12 37  1  0
 13 14  1  0
 13 18  2  0
 14 15  2  0
 14 38  1  0
 15 16  1  0
 15 39  1  0
 16 17  2  0
 16 19  1  0
 17 18  1  0
 17 40  1  0
 18 41  1  0
 19 20  1  0
 19 42  1  0
 19 43  1  0
 20 21  1  0
 20 22  1  0
 20 59  1  0
 21 44  1  0
 21 45  1  0
 21 46  1  0
 22 47  1  0
 22 48  1  0
 22 49  1  0
 23 24  1  0
 23 50  1  0
 24 25  1  0
 25 51  1  0
 26 27  1  0
 26 52  1  0
 26 53  1  0
 27 28  1  0
 27 54  1  0
 27 55  1  0
 28 31  1  0
 28 32  1  0
 28 58  1  0
 29 30  1  0
 29 56  1  0
 30 57  1  0
M  CHG  2  20   1  28   1
M  END
>  <s_epik_cmdline>  (20) 
J2VwaWtfcHl0aG9uJywgJy1waCcsICc3LjAwMDAwMCcsICctcGh0JywgJzIuMDAwMDAwJywgJy1tcycsICcxNicsICctdG4nLCAnOCcsICctbWEnLCAnMjAwJywgJy1pbWFlJywgJzxpbmZpbGUubWFlPicsICctb21hZScsICc8b3V0ZmlsZS5tYWU+Jw==

>  <s_epik_input>  (20) 
Q2xjMVtjSF1bY0hdYyhbY0hdW2NIXTEpTihbQ0gyXVtDSDJdW05IMl0pQyg9TyljMmMoW2NIXXNbY0hdMilbTkhdW0NIMl1jM1tjSF1bY0hdYyhbY0hdW2NIXTMpW0NIMl1OKFtDSDNdKVtDSDNd

>  <s_i_glide_gridfile>  (20) 
ATP-Grid

>  <s_lp_Force_Field>  (20) 
OPLS_2005

>  <s_lp_Variant>  (20) 
rxn512b____EMOL49832880____EMOL10439745____EMOL50155899-1

>  <s_lp_label>  (20) 
2545_sdstereoexpander_1_neutralizer_1_epik_1_stereoizer_1

>  <s_m_source_file>  (20) 
ATP-VSW-LIGPREP-001-in.maegz

>  <s_sd_BIOSOLVEIT.INFINISEE\_QUERY\_NAME>  (20) 
Ref-Lig

>  <s_sd_BIOSOLVEIT.INFINISEE\_QUERY\_SMILES>  (20) 
S(c1nc2c(cc1C[NH2+]Cc3ccc(cc3)C[NH+](C)C)cccc2)Cc4ccccc4

>  <s_sd_BIOSOLVEIT.INFINISEE\_REACTION\_NAME>  (20) 
rxn512b

>  <s_sd_BIOSOLVEIT.INFINISEE\_REAGENT1\_NAME>  (20) 
EMOL49832880

>  <s_sd_BIOSOLVEIT.INFINISEE\_REAGENT1\_SMILES>  (20) 
Clc1ccc(NCCN)cc1

>  <s_sd_BIOSOLVEIT.INFINISEE\_REAGENT2\_NAME>  (20) 
EMOL10439745

>  <s_sd_BIOSOLVEIT.INFINISEE\_REAGENT2\_SMILES>  (20) 
BrC=1C(C(=O)O)=CSC1

>  <s_sd_BIOSOLVEIT.INFINISEE\_REAGENT3\_NAME>  (20) 
EMOL50155899

>  <s_sd_BIOSOLVEIT.INFINISEE\_REAGENT3\_SMILES>  (20) 
N(Cc1ccc(cc1)CN)(C)C

>  <s_sd_BIOSOLVEIT.INFINISEE\_SPACE>  (20) 
eXplore_7tr_2022-12

>  <s_vsw_compound_code>  (20) 
81409

>  <s_vsw_variant>  (20) 
81409-1

>  <r_epik_Charging_Adjusted_Penalty>  (20) 
0.090303258902975497

>  <r_epik_Ionization_Penalty>  (20) 
0.045199999999999997

>  <r_epik_Ionization_Penalty_Charging>  (20) 
0.045199999999999997

>  <r_epik_Ionization_Penalty_Neutral>  (20) 
0

>  <r_epik_State_Penalty>  (20) 
0.045199999999999997

>  <r_i_docking_score>  (20) 
-3.71645058261148

>  <r_i_glide_ecoul>  (20) 
-5.9995012283325204

>  <r_i_glide_eff_state_penalty>  (20) 
0.045199999999999997

>  <r_i_glide_einternal>  (20) 
20.991867065429702

>  <r_i_glide_emodel>  (20) 
-41.859039719801601

>  <r_i_glide_energy>  (20) 
-38.807255744934103

>  <r_i_glide_erotb>  (20) 
0.80809397529168503

>  <r_i_glide_esite>  (20) 
-0.0100354698200596

>  <r_i_glide_evdw>  (20) 
-32.807754516601598

>  <r_i_glide_gscore>  (20) 
-3.7616505826114799

>  <r_i_glide_hbond>  (20) 
0

>  <r_i_glide_ligand_efficiency>  (20) 
-0.123881686087049

>  <r_i_glide_ligand_efficiency_ln>  (20) 
-0.84441806634173899

>  <r_i_glide_ligand_efficiency_sa>  (20) 
-0.38492920146564502

>  <r_i_glide_lipo>  (20) 
-1.5934112511534599

>  <r_i_glide_metal>  (20) 
-0

>  <r_i_glide_rewards>  (20) 
-0.42598492684969302

>  <r_lp_Energy>  (20) 
37.096955000000001

>  <r_lp_tautomer_probability>  (20) 
0.99999274205267796

>  <r_qp_ACxDN^.5/SA>  (20) 
0.0108825

>  <r_qp_CIQPlogS>  (20) 
-3.6299999999999999

>  <r_qp_EA(eV)>  (20) 
0.51900000000000002

>  <r_qp_FISA>  (20) 
93.355999999999995

>  <r_qp_FOSA>  (20) 
271.85199999999998

>  <r_qp_IP(eV)>  (20) 
8.1050000000000004

>  <r_qp_Jm>  (20) 
0.000759686918588386

>  <r_qp_PISA>  (20) 
291.25099999999998

>  <r_qp_PSA>  (20) 
69.366

>  <r_qp_PercentHumanOralAbsorption>  (20) 
73.840999999999994

>  <r_qp_QPPCaco>  (20) 
20.013000000000002

>  <r_qp_QPPMDCK>  (20) 
46.25

>  <r_qp_QPlogBB>  (20) 
0.035999999999999997

>  <r_qp_QPlogHERG>  (20) 
-8.6679999999999993

>  <r_qp_QPlogKhsa>  (20) 
0.78100000000000003

>  <r_qp_QPlogKp>  (20) 
-5.3789999999999996

>  <r_qp_QPlogPC16>  (20) 
15.477

>  <r_qp_QPlogPo/w>  (20) 
4.0309999999999997

>  <r_qp_QPlogPoct>  (20) 
22.045999999999999

>  <r_qp_QPlogPw>  (20) 
10.888

>  <r_qp_QPlogS>  (20) 
-3.387

>  <r_qp_QPpolrz>  (20) 
46.588000000000001

>  <r_qp_SASA>  (20) 
779.71600000000001

>  <r_qp_SAamideO>  (20) 
0

>  <r_qp_SAfluorine>  (20) 
0

>  <r_qp_WPSA>  (20) 
123.258

>  <r_qp_accptHB>  (20) 
6

>  <r_qp_dip^2/V>  (20) 
0.0158885

>  <r_qp_dipole>  (20) 
4.7309999999999999

>  <r_qp_donorHB>  (20) 
2

>  <r_qp_glob>  (20) 
0.77947379999999999

>  <r_qp_mol_MW>  (20) 
443.005

>  <r_qp_volume>  (20) 
1408.8320000000001

>  <r_sd_BIOSOLVEIT.INFINISEE\_FTREES\_SIMILARITY>  (20) 
0.91300000000000003

>  <r_sd_BIOSOLVEIT.LOGP>  (20) 
2.5468000000000002

>  <r_sd_BIOSOLVEIT.MOLECULAR\_WEIGHT>  (20) 
445.02699999999999

>  <r_sd_BIOSOLVEIT.TPSA>  (20) 
64.420000000000002

>  <i_epik_Tot_Q>  (20) 
2

>  <i_epik_Tot_abs_Q>  (20) 
2

>  <i_f3d_flags>  (20) 
0

>  <i_i_glide_confnum>  (20) 
3

>  <i_i_glide_lignum>  (20) 
1018

>  <i_i_glide_posenum>  (20) 
15

>  <i_i_glide_rotatable_bonds>  (20) 
10

>  <i_lp_mmshare_version>  (20) 
65135

>  <i_m_ct_format>  (20) 
2

>  <i_m_source_file_index>  (20) 
2545

>  <i_qp_#NandO>  (20) 
5

>  <i_qp_#acid>  (20) 
0

>  <i_qp_#amide>  (20) 
0

>  <i_qp_#amidine>  (20) 
0

>  <i_qp_#amine>  (20) 
3

>  <i_qp_#in34>  (20) 
0

>  <i_qp_#in56>  (20) 
17

>  <i_qp_#metab>  (20) 
7

>  <i_qp_#nonHatm>  (20) 
30

>  <i_qp_#noncon>  (20) 
0

>  <i_qp_#ringatoms>  (20) 
17

>  <i_qp_#rotor>  (20) 
10

>  <i_qp_#rtvFG>  (20) 
0

>  <i_qp_#stars>  (20) 
0

>  <i_qp_CNS>  (20) 
1

>  <i_qp_HumanOralAbsorption>  (20) 
2

>  <i_qp_RuleOfFive>  (20) 
0

>  <i_qp_RuleOfThree>  (20) 
2

>  <i_sd_BIOSOLVEIT.INFINISEE\_RESULT\_RANK>  (20) 
35131

>  <i_sd_version>  (20) 
0

>  <b_lp_Chiralities_Consistent>  (20) 
1

>  <b_sd_chiral_flag>  (20) 
0

>  <canonical_id>  (20) 
ATP-HTVS-3654BFD7575B

>  <compound_code>  (20) 
81409

>  <title>  (20) 
rxn512b____EMOL49832880____EMOL10439745____EMOL50155899

>  <variant>  (20) 
81409-1

>  <source_file>  (20) 
运行/运行/ATP-VSW/ATP-VSW-DOCK_HTVS_1-001_lib/ATP-VSW-DOCK_HTVS_1-001_lib

>  <canonical_smiles>  (20) 
C[NH+](C)Cc1ccc(CNc2cscc2C(=O)N(CC[NH3+])c2ccc(Cl)cc2)cc1

>  <scaffold>  (20) 
O=C(Nc1ccccc1)c1cscc1NCc1ccccc1

>  <molecular_formula>  (20) 
C23H29ClN4OS+2

>  <acquisition_id_v2>  (20) 
ATP-ACQ2-0020

>  <selection_arm_v2>  (20) 
local_structure_bridge

>  <priority_v2>  (20) 
P0

$$$$
ATP-ACQ2-0021
     RDKit          3D

 50 53  0  0  0  0  0  0  0  0999 V2000
  196.7224  186.9278  157.9018 Cl  0  0  0  0  0  0  0  0  0  0  0  0
  196.4694  185.2326  158.1351 C   0  0  0  0  0  0  0  0  0  0  0  0
  197.1547  184.2650  157.3629 C   0  0  0  0  0  0  0  0  0  0  0  0
  198.3189  184.7434  156.1211 S   0  0  0  0  0  0  0  0  0  0  0  0
  197.3096  185.3981  154.7712 C   0  0  0  0  0  0  0  0  0  0  0  0
  198.2065  185.8342  153.6420 C   0  0  0  0  0  0  0  0  0  0  0  0
  198.9679  187.0545  153.6445 C   0  0  0  0  0  0  0  0  0  0  0  0
  199.6716  187.0960  152.4206 C   0  0  0  0  0  0  0  0  0  0  0  0
  199.3680  185.9709  151.6899 O   0  0  0  0  0  0  0  0  0  0  0  0
  198.4801  185.2169  152.4279 C   0  0  0  0  0  0  0  0  0  0  0  0
  198.0716  183.9157  151.8356 C   0  0  0  0  0  0  0  0  0  0  0  0
  198.6506  183.4651  150.8490 O   0  0  0  0  0  0  0  0  0  0  0  0
  197.0480  183.2846  152.4241 N   0  0  0  0  0  0  0  0  0  0  0  0
  196.6293  181.9162  152.1790 C   0  0  0  0  0  0  0  0  0  0  0  0
  197.3571  180.9216  153.0736 C   0  0  0  0  0  0  0  0  0  0  0  0
  198.5553  180.3328  152.6276 C   0  0  0  0  0  0  0  0  0  0  0  0
  199.2359  179.3981  153.4328 C   0  0  0  0  0  0  0  0  0  0  0  0
  198.7341  179.0543  154.7067 C   0  0  0  0  0  0  0  0  0  0  0  0
  197.5424  179.6557  155.1613 C   0  0  0  0  0  0  0  0  0  0  0  0
  196.8596  180.5911  154.3549 C   0  0  0  0  0  0  0  0  0  0  0  0
  199.4675  178.0326  155.5677 C   0  0  0  0  0  0  0  0  0  0  0  0
  199.5686  178.4144  156.9275 O   0  0  0  0  0  0  0  0  0  0  0  0
  200.5331  188.1481  152.0615 C   0  0  0  0  0  0  0  0  0  0  0  0
  200.6916  189.2250  152.9543 C   0  0  0  0  0  0  0  0  0  0  0  0
  200.0022  189.2212  154.1847 C   0  0  0  0  0  0  0  0  0  0  0  0
  199.1533  188.1457  154.5262 C   0  0  0  0  0  0  0  0  0  0  0  0
  196.9125  182.8928  157.5731 C   0  0  0  0  0  0  0  0  0  0  0  0
  195.9904  182.4820  158.5549 C   0  0  0  0  0  0  0  0  0  0  0  0
  195.3109  183.4418  159.3262 C   0  0  0  0  0  0  0  0  0  0  0  0
  195.5473  184.8135  159.1156 C   0  0  0  0  0  0  0  0  0  0  0  0
  196.5911  184.6333  154.4922 H   0  0  0  0  0  0  0  0  0  0  0  0
  196.7207  186.2449  155.1246 H   0  0  0  0  0  0  0  0  0  0  0  0
  196.5779  183.7581  153.1877 H   0  0  0  0  0  0  0  0  0  0  0  0
  195.5587  181.8563  152.3770 H   0  0  0  0  0  0  0  0  0  0  0  0
  196.7597  181.6396  151.1314 H   0  0  0  0  0  0  0  0  0  0  0  0
  198.9565  180.5958  151.6600 H   0  0  0  0  0  0  0  0  0  0  0  0
  200.1479  178.9447  153.0680 H   0  0  0  0  0  0  0  0  0  0  0  0
  197.1465  179.3920  156.1336 H   0  0  0  0  0  0  0  0  0  0  0  0
  195.9513  181.0432  154.7265 H   0  0  0  0  0  0  0  0  0  0  0  0
  198.9440  177.0783  155.5121 H   0  0  0  0  0  0  0  0  0  0  0  0
  200.4706  177.8651  155.1733 H   0  0  0  0  0  0  0  0  0  0  0  0
  198.7113  178.2295  157.3499 H   0  0  0  0  0  0  0  0  0  0  0  0
  201.0546  188.1318  151.1157 H   0  0  0  0  0  0  0  0  0  0  0  0
  201.3426  190.0497  152.7021 H   0  0  0  0  0  0  0  0  0  0  0  0
  200.1229  190.0477  154.8703 H   0  0  0  0  0  0  0  0  0  0  0  0
  198.6272  188.1537  155.4691 H   0  0  0  0  0  0  0  0  0  0  0  0
  197.4286  182.1492  156.9833 H   0  0  0  0  0  0  0  0  0  0  0  0
  195.8100  181.4279  158.7109 H   0  0  0  0  0  0  0  0  0  0  0  0
  194.6024  183.1269  160.0753 H   0  0  0  0  0  0  0  0  0  0  0  0
  195.0187  185.5482  159.7036 H   0  0  0  0  0  0  0  0  0  0  0  0
  1  2  1  0
  2  3  1  0
  2 30  2  0
  3  4  1  0
  3 27  2  0
  4  5  1  0
  5  6  1  0
  5 31  1  0
  5 32  1  0
  6  7  1  0
  6 10  2  0
  7  8  1  0
  7 26  2  0
  8  9  1  0
  8 23  2  0
  9 10  1  0
 10 11  1  0
 11 12  2  0
 11 13  1  0
 13 14  1  0
 13 33  1  0
 14 15  1  0
 14 34  1  0
 14 35  1  0
 15 16  1  0
 15 20  2  0
 16 17  2  0
 16 36  1  0
 17 18  1  0
 17 37  1  0
 18 19  2  0
 18 21  1  0
 19 20  1  0
 19 38  1  0
 20 39  1  0
 21 22  1  0
 21 40  1  0
 21 41  1  0
 22 42  1  0
 23 24  1  0
 23 43  1  0
 24 25  2  0
 24 44  1  0
 25 26  1  0
 25 45  1  0
 26 46  1  0
 27 28  1  0
 27 47  1  0
 28 29  2  0
 28 48  1  0
 29 30  1  0
 29 49  1  0
 30 50  1  0
M  END
>  <s_epik_cmdline>  (21) 
J2VwaWtfcHl0aG9uJywgJy1waCcsICc3LjAwMDAwMCcsICctcGh0JywgJzIuMDAwMDAwJywgJy1tcycsICcxNicsICctdG4nLCAnOCcsICctbWEnLCAnMjAwJywgJy1pbWFlJywgJzxpbmZpbGUubWFlPicsICctb21hZScsICc8b3V0ZmlsZS5tYWU+Jw==

>  <s_epik_input>  (21) 
W2NIXTFbY0hdW2NIXVtjSF1jKGMxQ2wpU1tDSDJdYzJjKG9jKGMyMylbY0hdW2NIXVtjSF1bY0hdMylDKD1PKVtOSF1bQ0gyXWM0W2NIXVtjSF1jKFtjSF1bY0hdNClbQ0gyXVtPSF0=

>  <s_i_glide_gridfile>  (21) 
ATP-Grid

>  <s_lp_Force_Field>  (21) 
OPLS_2005

>  <s_lp_Variant>  (21) 
a1____58183____286425-1

>  <s_lp_label>  (21) 
578_sdstereoexpander_1_neutralizer_1_epik_1_stereoizer_1

>  <s_m_source_file>  (21) 
ATP-VSW-LIGPREP-002-in.maegz

>  <s_sd_BIOSOLVEIT.INFINISEE\_QUERY\_NAME>  (21) 
Ref-Lig

>  <s_sd_BIOSOLVEIT.INFINISEE\_QUERY\_SMILES>  (21) 
S(c1nc2c(cc1C[NH2+]Cc3ccc(cc3)C[NH+](C)C)cccc2)Cc4ccccc4

>  <s_sd_BIOSOLVEIT.INFINISEE\_REACTION\_NAME>  (21) 
a1

>  <s_sd_BIOSOLVEIT.INFINISEE\_REAGENT1\_SMILES>  (21) 
[R1*]NCc1ccc(cc1)CO

>  <s_sd_BIOSOLVEIT.INFINISEE\_REAGENT2\_SMILES>  (21) 
[R1*]C(=O)C=1Oc2c(cccc2)C1CSc3c(Cl)cccc3

>  <s_sd_BIOSOLVEIT.INFINISEE\_SPACE>  (21) 
FreedomSpace_5bn_2023-06

>  <s_vsw_compound_code>  (21) 
18466

>  <s_vsw_variant>  (21) 
18466-1

>  <r_epik_Charging_Adjusted_Penalty>  (21) 
0

>  <r_epik_Ionization_Penalty>  (21) 
0

>  <r_epik_Ionization_Penalty_Charging>  (21) 
0

>  <r_epik_Ionization_Penalty_Neutral>  (21) 
0

>  <r_epik_State_Penalty>  (21) 
-0

>  <r_i_docking_score>  (21) 
-3.7402764348645499

>  <r_i_glide_ecoul>  (21) 
-8.4042186737060494

>  <r_i_glide_eff_state_penalty>  (21) 
-0

>  <r_i_glide_einternal>  (21) 
3.14345455169678

>  <r_i_glide_emodel>  (21) 
-50.5697643487443

>  <r_i_glide_energy>  (21) 
-41.2770900726318

>  <r_i_glide_erotb>  (21) 
0.83197266575028495

>  <r_i_glide_esite>  (21) 
-0.0347271410030544

>  <r_i_glide_evdw>  (21) 
-32.872871398925803

>  <r_i_glide_gscore>  (21) 
-3.7402764348645499

>  <r_i_glide_hbond>  (21) 
-0.16

>  <r_i_glide_ligand_efficiency>  (21) 
-0.124675881162152

>  <r_i_glide_ligand_efficiency_ln>  (21) 
-0.849831559577089

>  <r_i_glide_ligand_efficiency_sa>  (21) 
-0.38739695021627402

>  <r_i_glide_lipo>  (21) 
-1.04333362909936

>  <r_i_glide_metal>  (21) 
-0

>  <r_i_glide_rewards>  (21) 
-0.42991195951022299

>  <r_lp_Energy>  (21) 
12.996383

>  <r_lp_tautomer_probability>  (21) 
1

>  <r_qp_ACxDN^.5/SA>  (21) 
0.011710999999999999

>  <r_qp_CIQPlogS>  (21) 
-7.2199999999999998

>  <r_qp_EA(eV)>  (21) 
0.78300000000000003

>  <r_qp_FISA>  (21) 
65.349999999999994

>  <r_qp_FOSA>  (21) 
127.041

>  <r_qp_IP(eV)>  (21) 
8.7200000000000006

>  <r_qp_Jm>  (21) 
1.3254487909688699

>  <r_qp_PISA>  (21) 
354.55099999999999

>  <r_qp_PSA>  (21) 
65.507999999999996

>  <r_qp_PercentHumanOralAbsorption>  (21) 
100

>  <r_qp_QPPCaco>  (21) 
2377.8499999999999

>  <r_qp_QPPMDCK>  (21) 
3505.1419999999998

>  <r_qp_QPlogBB>  (21) 
-0.28499999999999998

>  <r_qp_QPlogHERG>  (21) 
-5.1909999999999998

>  <r_qp_QPlogKhsa>  (21) 
0.56200000000000006

>  <r_qp_QPlogKp>  (21) 
-0.70699999999999996

>  <r_qp_QPlogPC16>  (21) 
13.558

>  <r_qp_QPlogPo/w>  (21) 
4.9009999999999998

>  <r_qp_QPlogPoct>  (21) 
20.161999999999999

>  <r_qp_QPlogPw>  (21) 
10.401

>  <r_qp_QPlogS>  (21) 
-4.8120000000000003

>  <r_qp_QPpolrz>  (21) 
40.841000000000001

>  <r_qp_SASA>  (21) 
627.947

>  <r_qp_SAamideO>  (21) 
0

>  <r_qp_SAfluorine>  (21) 
0

>  <r_qp_WPSA>  (21) 
81.004999999999995

>  <r_qp_accptHB>  (21) 
5.2000000000000002

>  <r_qp_dip^2/V>  (21) 
0.044895200000000003

>  <r_qp_dipole>  (21) 
7.3949999999999996

>  <r_qp_donorHB>  (21) 
2

>  <r_qp_glob>  (21) 
0.8783744

>  <r_qp_mol_MW>  (21) 
437.94

>  <r_qp_volume>  (21) 
1218.0239999999999

>  <r_sd_BIOSOLVEIT.INFINISEE\_FTREES\_SIMILARITY>  (21) 
0.90200000000000002

>  <r_sd_BIOSOLVEIT.LOGP>  (21) 
5.8007999999999997

>  <r_sd_BIOSOLVEIT.MOLECULAR\_WEIGHT>  (21) 
437.94400000000002

>  <r_sd_BIOSOLVEIT.TPSA>  (21) 
62.469999999999999

>  <i_epik_Tot_Q>  (21) 
0

>  <i_epik_Tot_abs_Q>  (21) 
0

>  <i_f3d_flags>  (21) 
0

>  <i_i_glide_confnum>  (21) 
7

>  <i_i_glide_lignum>  (21) 
167

>  <i_i_glide_posenum>  (21) 
3

>  <i_i_glide_rotatable_bonds>  (21) 
9

>  <i_lp_mmshare_version>  (21) 
65135

>  <i_m_ct_format>  (21) 
2

>  <i_m_source_file_index>  (21) 
578

>  <i_qp_#NandO>  (21) 
4

>  <i_qp_#acid>  (21) 
0

>  <i_qp_#amide>  (21) 
0

>  <i_qp_#amidine>  (21) 
0

>  <i_qp_#amine>  (21) 
0

>  <i_qp_#in34>  (21) 
0

>  <i_qp_#in56>  (21) 
21

>  <i_qp_#metab>  (21) 
4

>  <i_qp_#nonHatm>  (21) 
30

>  <i_qp_#noncon>  (21) 
0

>  <i_qp_#ringatoms>  (21) 
21

>  <i_qp_#rotor>  (21) 
8

>  <i_qp_#rtvFG>  (21) 
0

>  <i_qp_#stars>  (21) 
0

>  <i_qp_CNS>  (21) 
0

>  <i_qp_HumanOralAbsorption>  (21) 
3

>  <i_qp_RuleOfFive>  (21) 
0

>  <i_qp_RuleOfThree>  (21) 
0

>  <i_sd_BIOSOLVEIT.INFINISEE\_REAGENT1\_NAME>  (21) 
58183

>  <i_sd_BIOSOLVEIT.INFINISEE\_REAGENT2\_NAME>  (21) 
286425

>  <i_sd_BIOSOLVEIT.INFINISEE\_RESULT\_RANK>  (21) 
91254

>  <i_sd_version>  (21) 
0

>  <b_lp_Chiralities_Consistent>  (21) 
1

>  <b_sd_chiral_flag>  (21) 
0

>  <canonical_id>  (21) 
ATP-HTVS-DCF81E89AD2E

>  <compound_code>  (21) 
18466

>  <title>  (21) 
a1____58183____286425

>  <variant>  (21) 
18466-1

>  <source_file>  (21) 
运行/运行/ATP-VSW/ATP-VSW-DOCK_HTVS_1-002_lib.maegz

>  <canonical_smiles>  (21) 
O=C(NCc1ccc(CO)cc1)c1oc2ccccc2c1CSc1ccccc1Cl

>  <scaffold>  (21) 
O=C(NCc1ccccc1)c1oc2ccccc2c1CSc1ccccc1

>  <molecular_formula>  (21) 
C24H20ClNO3S

>  <acquisition_id_v2>  (21) 
ATP-ACQ2-0021

>  <selection_arm_v2>  (21) 
scaffold_score_exploration

>  <priority_v2>  (21) 
P0

$$$$
ATP-ACQ2-0022
     RDKit          3D

 56 59  0  0  0  0  0  0  0  0999 V2000
  195.5443  184.7616  160.5333 F   0  0  0  0  0  0  0  0  0  0  0  0
  196.6285  184.6543  159.7317 C   0  0  0  0  0  0  0  0  0  0  0  0
  196.7647  183.5284  158.9074 C   0  0  0  0  0  0  0  0  0  0  0  0
  197.8742  183.4025  158.0345 C   0  0  0  0  0  0  0  0  0  0  0  0
  198.8585  184.4111  158.0364 C   0  0  0  0  0  0  0  0  0  0  0  0
  198.7324  185.5277  158.8865 C   0  0  0  0  0  0  0  0  0  0  0  0
  197.6118  185.6556  159.7274 C   0  0  0  0  0  0  0  0  0  0  0  0
  198.0280  182.2030  157.1044 C   0  0  0  0  0  0  0  0  0  0  0  0
  196.8477  182.0278  156.1292 C   0  0  2  0  0  0  0  0  0  0  0  0
  195.6666  181.4370  156.8000 N   0  0  0  0  0  0  0  0  0  0  0  0
  197.1452  181.1465  154.9957 C   0  0  0  0  0  0  0  0  0  0  0  0
  197.3898  180.4610  154.0112 C   0  0  0  0  0  0  0  0  0  0  0  0
  197.7039  179.7280  152.7978 C   0  0  0  0  0  0  0  0  0  0  0  0
  198.7940  178.8223  152.7050 C   0  0  0  0  0  0  0  0  0  0  0  0
  199.0269  178.1307  151.5603 N   0  0  0  0  0  0  0  0  0  0  0  0
  198.2446  178.3040  150.4759 C   0  0  0  0  0  0  0  0  0  0  0  0
  197.1656  179.2239  150.4861 C   0  0  0  0  0  0  0  0  0  0  0  0
  196.8894  179.9306  151.6670 C   0  0  0  0  0  0  0  0  0  0  0  0
  196.3844  179.4333  149.3324 C   0  0  0  0  0  0  0  0  0  0  0  0
  196.6436  178.6927  148.1660 C   0  0  0  0  0  0  0  0  0  0  0  0
  197.6970  177.7600  148.1410 C   0  0  0  0  0  0  0  0  0  0  0  0
  198.4811  177.5659  149.2951 C   0  0  0  0  0  0  0  0  0  0  0  0
  199.5485  178.5461  153.8785 N   0  0  0  0  0  0  0  0  0  0  0  0
  200.7812  178.0417  153.9401 C   0  0  0  0  0  0  0  0  0  0  0  0
  201.5931  178.1767  153.0112 O   0  0  0  0  0  0  0  0  0  0  0  0
  201.1964  177.3753  155.2659 C   0  0  0  0  0  0  0  0  0  0  0  0
  202.0123  176.1139  155.0289 C   0  0  0  0  0  0  0  0  0  0  0  0
  203.3925  176.2013  154.7389 C   0  0  0  0  0  0  0  0  0  0  0  0
  204.1551  175.0335  154.5284 C   0  0  0  0  0  0  0  0  0  0  0  0
  203.5495  173.7623  154.5896 C   0  0  0  0  0  0  0  0  0  0  0  0
  204.2987  172.6346  154.3811 O   0  0  0  0  0  0  0  0  0  0  0  0
  202.1682  173.6706  154.8653 C   0  0  0  0  0  0  0  0  0  0  0  0
  201.4047  174.8362  155.0924 C   0  0  0  0  0  0  0  0  0  0  0  0
  194.9001  181.4396  156.1406 H   0  0  0  0  0  0  0  0  0  0  0  0
  195.3675  182.0321  157.5417 H   0  0  0  0  0  0  0  0  0  0  0  0
  195.9936  182.7843  158.9899 H   0  0  0  0  0  0  0  0  0  0  0  0
  199.7264  184.3355  157.3952 H   0  0  0  0  0  0  0  0  0  0  0  0
  199.4980  186.2869  158.8941 H   0  0  0  0  0  0  0  0  0  0  0  0
  197.5141  186.5055  160.3847 H   0  0  0  0  0  0  0  0  0  0  0  0
  198.9654  182.3040  156.5430 H   0  0  0  0  0  0  0  0  0  0  0  0
  198.1299  181.3025  157.7088 H   0  0  0  0  0  0  0  0  0  0  0  0
  196.5751  182.9942  155.6875 H   0  0  0  0  0  0  0  0  0  0  0  0
  196.0730  180.6346  151.6972 H   0  0  0  0  0  0  0  0  0  0  0  0
  195.5658  180.1391  149.3482 H   0  0  0  0  0  0  0  0  0  0  0  0
  196.0391  178.8282  147.2811 H   0  0  0  0  0  0  0  0  0  0  0  0
  197.8976  177.2089  147.2325 H   0  0  0  0  0  0  0  0  0  0  0  0
  199.2896  176.8521  149.2648 H   0  0  0  0  0  0  0  0  0  0  0  0
  199.0526  178.6427  154.7560 H   0  0  0  0  0  0  0  0  0  0  0  0
  201.7547  178.0800  155.8884 H   0  0  0  0  0  0  0  0  0  0  0  0
  200.3102  177.0991  155.8460 H   0  0  0  0  0  0  0  0  0  0  0  0
  203.8713  177.1678  154.6974 H   0  0  0  0  0  0  0  0  0  0  0  0
  205.2093  175.1090  154.3140 H   0  0  0  0  0  0  0  0  0  0  0  0
  203.8169  171.8037  154.2816 H   0  0  0  0  0  0  0  0  0  0  0  0
  201.7077  172.6976  154.9090 H   0  0  0  0  0  0  0  0  0  0  0  0
  200.3549  174.7435  155.3198 H   0  0  0  0  0  0  0  0  0  0  0  0
  195.8153  180.4780  157.1648 H   0  0  0  0  0  0  0  0  0  0  0  0
  1  2  1  0
  2  3  2  0
  2  7  1  0
  3  4  1  0
  3 36  1  0
  4  5  2  0
  4  8  1  0
  5  6  1  0
  5 37  1  0
  6  7  2  0
  6 38  1  0
  7 39  1  0
  8  9  1  0
  8 40  1  0
  8 41  1  0
  9 10  1  0
  9 11  1  0
  9 42  1  6
 10 34  1  0
 10 35  1  0
 10 56  1  0
 11 12  3  0
 12 13  1  0
 13 14  1  0
 13 18  2  0
 14 15  2  0
 14 23  1  0
 15 16  1  0
 16 17  1  0
 16 22  2  0
 17 18  1  0
 17 19  2  0
 18 43  1  0
 19 20  1  0
 19 44  1  0
 20 21  2  0
 20 45  1  0
 21 22  1  0
 21 46  1  0
 22 47  1  0
 23 24  1  0
 23 48  1  0
 24 25  2  0
 24 26  1  0
 26 27  1  0
 26 49  1  0
 26 50  1  0
 27 28  1  0
 27 33  2  0
 28 29  2  0
 28 51  1  0
 29 30  1  0
 29 52  1  0
 30 31  1  0
 30 32  2  0
 31 53  1  0
 32 33  1  0
 32 54  1  0
 33 55  1  0
M  CHG  1  10   1
M  END
>  <s_epik_cmdline>  (22) 
J2VwaWtfcHl0aG9uJywgJy1waCcsICc3LjAwMDAwMCcsICctcGh0JywgJzIuMDAwMDAwJywgJy1tcycsICcxNicsICctdG4nLCAnOCcsICctbWEnLCAnMjAwJywgJy1pbWFlJywgJzxpbmZpbGUubWFlPicsICctb21hZScsICc8b3V0ZmlsZS5tYWU+Jw==

>  <s_epik_input>  (22) 
RmMxW2NIXWMoW2NIXVtjSF1bY0hdMSlbQ0gyXVtDQEhdKFtOSDJdKUMjQ2MoW2NIXWMoYzIzKVtjSF1bY0hdW2NIXVtjSF0zKWMobjIpW05IXUMoPU8pW0NIMl1jNFtjSF1bY0hdYyhbT0hdKVtjSF1bY0hdNA==

>  <s_i_glide_gridfile>  (22) 
ATP-Grid

>  <s_lp_Force_Field>  (22) 
OPLS_2005

>  <s_lp_Variant>  (22) 
rxn503b____EMOL521529____EMOL44466703____EMOL313110234-4

>  <s_lp_label>  (22) 
2664_sdstereoexpander_2_neutralizer_1_epik_2_stereoizer_1

>  <s_m_source_file>  (22) 
ATP-VSW-LIGPREP-001-in.maegz

>  <s_sd_BIOSOLVEIT.INFINISEE\_QUERY\_NAME>  (22) 
Ref-Lig

>  <s_sd_BIOSOLVEIT.INFINISEE\_QUERY\_SMILES>  (22) 
S(c1nc2c(cc1C[NH2+]Cc3ccc(cc3)C[NH+](C)C)cccc2)Cc4ccccc4

>  <s_sd_BIOSOLVEIT.INFINISEE\_REACTION\_NAME>  (22) 
rxn503b

>  <s_sd_BIOSOLVEIT.INFINISEE\_REAGENT1\_NAME>  (22) 
EMOL521529

>  <s_sd_BIOSOLVEIT.INFINISEE\_REAGENT1\_SMILES>  (22) 
O=C(O)Cc1ccc(O)cc1

>  <s_sd_BIOSOLVEIT.INFINISEE\_REAGENT2\_NAME>  (22) 
EMOL44466703

>  <s_sd_BIOSOLVEIT.INFINISEE\_REAGENT2\_SMILES>  (22) 
Brc1c(nc2c(c1)cccc2)N

>  <s_sd_BIOSOLVEIT.INFINISEE\_REAGENT3\_NAME>  (22) 
EMOL313110234

>  <s_sd_BIOSOLVEIT.INFINISEE\_REAGENT3\_SMILES>  (22) 
Fc1cc(ccc1)CC(N)C#C

>  <s_sd_BIOSOLVEIT.INFINISEE\_SPACE>  (22) 
eXplore_7tr_2022-12

>  <s_vsw_compound_code>  (22) 
85217

>  <s_vsw_variant>  (22) 
85217-4

>  <r_epik_Charging_Adjusted_Penalty>  (22) 
1.2271758803980499

>  <r_epik_Ionization_Penalty>  (22) 
0.61439999999999995

>  <r_epik_Ionization_Penalty_Charging>  (22) 
0.61299999999999999

>  <r_epik_Ionization_Penalty_Neutral>  (22) 
0.0014

>  <r_epik_State_Penalty>  (22) 
0.61419999999999997

>  <r_i_docking_score>  (22) 
-6.4929946623529302

>  <r_i_glide_ecoul>  (22) 
-19.282735824585

>  <r_i_glide_eff_state_penalty>  (22) 
0.61419999999999997

>  <r_i_glide_einternal>  (22) 
9.4100675582885707

>  <r_i_glide_emodel>  (22) 
-79.623200691425794

>  <r_i_glide_energy>  (22) 
-51.664319992065401

>  <r_i_glide_erotb>  (22) 
0.72034826401853302

>  <r_i_glide_esite>  (22) 
-0.100451183419526

>  <r_i_glide_evdw>  (22) 
-32.381584167480497

>  <r_i_glide_gscore>  (22) 
-7.1071946623529296

>  <r_i_glide_hbond>  (22) 
-0.48418838982917001

>  <r_i_glide_ligand_efficiency>  (22) 
-0.19675741401069499

>  <r_i_glide_ligand_efficiency_ln>  (22) 
-1.44400839398018

>  <r_i_glide_ligand_efficiency_sa>  (22) 
-0.63110615938494996

>  <r_i_glide_lipo>  (22) 
-1.9121235292468199

>  <r_i_glide_metal>  (22) 
-0

>  <r_i_glide_rewards>  (22) 
-0.81929024181418098

>  <r_lp_Energy>  (22) 
21.141826999999999

>  <r_lp_tautomer_probability>  (22) 
0.999999999997365

>  <r_qp_ACxDN^.5/SA>  (22) 
0.0143331

>  <r_qp_CIQPlogS>  (22) 
-6.0030000000000001

>  <r_qp_EA(eV)>  (22) 
0.95599999999999996

>  <r_qp_FISA>  (22) 
122.953

>  <r_qp_FOSA>  (22) 
91.137

>  <r_qp_IP(eV)>  (22) 
8.6509999999999998

>  <r_qp_Jm>  (22) 
0.0042910865585608403

>  <r_qp_PISA>  (22) 
472.726

>  <r_qp_PSA>  (22) 
92.001999999999995

>  <r_qp_PercentHumanOralAbsorption>  (22) 
93.067999999999998

>  <r_qp_QPPCaco>  (22) 
168.59200000000001

>  <r_qp_QPPMDCK>  (22) 
142.292

>  <r_qp_QPlogBB>  (22) 
-0.69999999999999996

>  <r_qp_QPlogHERG>  (22) 
-7.4939999999999998

>  <r_qp_QPlogKhsa>  (22) 
0.70099999999999996

>  <r_qp_QPlogKp>  (22) 
-3.319

>  <r_qp_QPlogPC16>  (22) 
15.784000000000001

>  <r_qp_QPlogPo/w>  (22) 
4.4859999999999998

>  <r_qp_QPlogPoct>  (22) 
25.675999999999998

>  <r_qp_QPlogPw>  (22) 
14.593999999999999

>  <r_qp_QPlogS>  (22) 
-4.6920000000000002

>  <r_qp_QPpolrz>  (22) 
47.552999999999997

>  <r_qp_SASA>  (22) 
732.572

>  <r_qp_SAamideO>  (22) 
0

>  <r_qp_SAfluorine>  (22) 
45.756

>  <r_qp_WPSA>  (22) 
45.756

>  <r_qp_accptHB>  (22) 
5.25

>  <r_qp_dip^2/V>  (22) 
0.0553851

>  <r_qp_dipole>  (22) 
8.7219999999999995

>  <r_qp_donorHB>  (22) 
4

>  <r_qp_glob>  (22) 
0.81574040000000003

>  <r_qp_mol_MW>  (22) 
439.488

>  <r_qp_volume>  (22) 
1373.585

>  <r_sd_BIOSOLVEIT.INFINISEE\_FTREES\_SIMILARITY>  (22) 
0.90900000000000003

>  <r_sd_BIOSOLVEIT.LOGP>  (22) 
3.4653999999999998

>  <r_sd_BIOSOLVEIT.MOLECULAR\_WEIGHT>  (22) 
440.49599999999998

>  <r_sd_BIOSOLVEIT.TPSA>  (22) 
89.859999999999999

>  <i_epik_Tot_Q>  (22) 
1

>  <i_epik_Tot_abs_Q>  (22) 
1

>  <i_f3d_flags>  (22) 
0

>  <i_i_glide_confnum>  (22) 
3

>  <i_i_glide_lignum>  (22) 
1173

>  <i_i_glide_posenum>  (22) 
17

>  <i_i_glide_rotatable_bonds>  (22) 
9

>  <i_lp_mmshare_version>  (22) 
65135

>  <i_m_ct_format>  (22) 
2

>  <i_m_source_file_index>  (22) 
2664

>  <i_qp_#NandO>  (22) 
5

>  <i_qp_#acid>  (22) 
0

>  <i_qp_#amide>  (22) 
0

>  <i_qp_#amidine>  (22) 
0

>  <i_qp_#amine>  (22) 
1

>  <i_qp_#in34>  (22) 
0

>  <i_qp_#in56>  (22) 
22

>  <i_qp_#metab>  (22) 
6

>  <i_qp_#nonHatm>  (22) 
33

>  <i_qp_#noncon>  (22) 
0

>  <i_qp_#ringatoms>  (22) 
22

>  <i_qp_#rotor>  (22) 
9

>  <i_qp_#rtvFG>  (22) 
0

>  <i_qp_#stars>  (22) 
1

>  <i_qp_CNS>  (22) 
0

>  <i_qp_HumanOralAbsorption>  (22) 
3

>  <i_qp_RuleOfFive>  (22) 
0

>  <i_qp_RuleOfThree>  (22) 
0

>  <i_sd_BIOSOLVEIT.INFINISEE\_RESULT\_RANK>  (22) 
48132

>  <i_sd_version>  (22) 
0

>  <b_lp_Chiralities_Consistent>  (22) 
1

>  <b_sd_chiral_flag>  (22) 
0

>  <canonical_id>  (22) 
ATP-HTVS-AD7FBCC01633

>  <compound_code>  (22) 
85217

>  <title>  (22) 
rxn503b____EMOL521529____EMOL44466703____EMOL313110234

>  <variant>  (22) 
85217-4

>  <source_file>  (22) 
运行/运行/ATP-VSW/ATP-VSW-DOCK_HTVS_1-001_lib/ATP-VSW-DOCK_HTVS_1-001_lib

>  <canonical_smiles>  (22) 
[NH3+][C@H](C#Cc1cc2ccccc2nc1NC(=O)Cc1ccc(O)cc1)Cc1cccc(F)c1

>  <scaffold>  (22) 
O=C(Cc1ccccc1)Nc1nc2ccccc2cc1C#CCCc1ccccc1

>  <molecular_formula>  (22) 
C27H23FN3O2+

>  <acquisition_id_v2>  (22) 
ATP-ACQ2-0022

>  <selection_arm_v2>  (22) 
exploitation

>  <priority_v2>  (22) 
P0

$$$$
ATP-ACQ2-0023
     RDKit          3D

 62 65  0  0  0  0  0  0  0  0999 V2000
  197.4592  186.3569  156.6704 N   0  0  0  0  0  0  0  0  0  0  0  0
  197.9917  185.5966  155.6702 N   0  0  0  0  0  0  0  0  0  0  0  0
  198.5131  186.1778  154.4877 C   0  0  0  0  0  0  0  0  0  0  0  0
  198.4358  185.4624  153.2596 C   0  0  0  0  0  0  0  0  0  0  0  0
  198.9772  186.0369  152.0853 C   0  0  0  0  0  0  0  0  0  0  0  0
  199.5956  187.2950  152.1420 C   0  0  0  0  0  0  0  0  0  0  0  0
  199.6936  187.9823  153.3710 C   0  0  0  0  0  0  0  0  0  0  0  0
  199.1521  187.4094  154.5400 C   0  0  0  0  0  0  0  0  0  0  0  0
  197.9698  184.2646  155.9729 C   0  0  0  0  0  0  0  0  0  0  0  0
  197.2726  184.1075  157.1603 C   0  0  0  0  0  0  0  0  0  0  0  0
  197.0395  185.4690  157.5677 C   0  0  0  0  0  0  0  0  0  0  0  0
  196.4189  185.9855  158.7944 C   0  0  0  0  0  0  0  0  0  0  0  0
  196.9479  187.1471  159.4036 C   0  0  0  0  0  0  0  0  0  0  0  0
  196.3462  187.6824  160.5598 C   0  0  0  0  0  0  0  0  0  0  0  0
  195.2310  187.0454  161.1328 C   0  0  0  0  0  0  0  0  0  0  0  0
  194.7010  185.8874  160.5314 C   0  0  0  0  0  0  0  0  0  0  0  0
  195.2843  185.3672  159.3671 C   0  0  0  0  0  0  0  0  0  0  0  0
  196.8877  182.7950  157.8713 C   0  0  0  0  0  0  0  0  0  0  0  0
  196.2123  181.8097  156.9870 N   0  0  0  0  0  0  0  0  0  0  0  0
  197.1106  181.2937  155.9081 C   0  0  0  0  0  0  0  0  0  0  0  0
  196.3553  180.3104  155.0040 C   0  0  0  0  0  0  0  0  0  0  0  0
  197.2833  179.8116  153.9244 C   0  0  0  0  0  0  0  0  0  0  0  0
  196.9844  180.0065  152.5547 C   0  0  0  0  0  0  0  0  0  0  0  0
  197.8661  179.5403  151.5700 C   0  0  0  0  0  0  0  0  0  0  0  0
  199.0406  178.8269  151.9191 C   0  0  0  0  0  0  0  0  0  0  0  0
  199.3504  178.6508  153.2852 C   0  0  0  0  0  0  0  0  0  0  0  0
  198.4850  179.1481  154.2747 C   0  0  0  0  0  0  0  0  0  0  0  0
  199.9564  178.2544  150.8443 C   0  0  0  0  0  0  0  0  0  0  0  0
  199.4458  177.0545  150.1662 N   0  0  0  0  0  0  0  0  0  0  0  0
  200.4688  176.5080  149.2818 C   0  0  0  0  0  0  0  0  0  0  0  0
  198.2816  177.3555  149.3385 C   0  0  0  0  0  0  0  0  0  0  0  0
  195.9003  181.0157  157.5423 H   0  0  0  0  0  0  0  0  0  0  0  0
  197.9595  184.4978  153.1826 H   0  0  0  0  0  0  0  0  0  0  0  0
  198.9058  185.5169  151.1344 H   0  0  0  0  0  0  0  0  0  0  0  0
  200.0085  187.7452  151.2529 H   0  0  0  0  0  0  0  0  0  0  0  0
  200.1695  188.9487  153.4262 H   0  0  0  0  0  0  0  0  0  0  0  0
  199.2306  187.9278  155.4876 H   0  0  0  0  0  0  0  0  0  0  0  0
  198.4128  183.5570  155.3013 H   0  0  0  0  0  0  0  0  0  0  0  0
  197.8074  187.6439  158.9721 H   0  0  0  0  0  0  0  0  0  0  0  0
  196.7511  188.5819  161.0039 H   0  0  0  0  0  0  0  0  0  0  0  0
  194.7620  187.4626  162.0082 H   0  0  0  0  0  0  0  0  0  0  0  0
  193.8157  185.4165  160.9337 H   0  0  0  0  0  0  0  0  0  0  0  0
  194.8027  184.5241  158.8932 H   0  0  0  0  0  0  0  0  0  0  0  0
  197.7469  182.3451  158.3735 H   0  0  0  0  0  0  0  0  0  0  0  0
  196.1927  182.9434  158.6931 H   0  0  0  0  0  0  0  0  0  0  0  0
  197.4201  182.0248  155.2370 H   0  0  0  0  0  0  0  0  0  0  0  0
  197.9644  180.7822  156.4136 H   0  0  0  0  0  0  0  0  0  0  0  0
  195.9529  179.4487  155.5307 H   0  0  0  0  0  0  0  0  0  0  0  0
  195.5613  180.9093  154.5460 H   0  0  0  0  0  0  0  0  0  0  0  0
  196.0671  180.4966  152.2469 H   0  0  0  0  0  0  0  0  0  0  0  0
  197.6193  179.7133  150.5357 H   0  0  0  0  0  0  0  0  0  0  0  0
  200.2449  178.1192  153.5847 H   0  0  0  0  0  0  0  0  0  0  0  0
  198.7338  178.9997  155.3150 H   0  0  0  0  0  0  0  0  0  0  0  0
  200.1729  179.0387  150.1139 H   0  0  0  0  0  0  0  0  0  0  0  0
  200.9122  178.0135  151.3132 H   0  0  0  0  0  0  0  0  0  0  0  0
  200.0859  175.6219  148.7730 H   0  0  0  0  0  0  0  0  0  0  0  0
  201.3616  176.2093  149.8344 H   0  0  0  0  0  0  0  0  0  0  0  0
  200.7611  177.2305  148.5160 H   0  0  0  0  0  0  0  0  0  0  0  0
  197.9299  176.4774  148.7851 H   0  0  0  0  0  0  0  0  0  0  0  0
  198.5152  178.1569  148.6337 H   0  0  0  0  0  0  0  0  0  0  0  0
  197.4406  177.6674  149.9578 H   0  0  0  0  0  0  0  0  0  0  0  0
  195.3822  182.2224  156.5689 H   0  0  0  0  0  0  0  0  0  0  0  0
  1  2  1  0
  1 11  2  0
  2  3  1  0
  2  9  1  0
  3  4  2  0
  3  8  1  0
  4  5  1  0
  4 33  1  0
  5  6  2  0
  5 34  1  0
  6  7  1  0
  6 35  1  0
  7  8  2  0
  7 36  1  0
  8 37  1  0
  9 10  2  0
  9 38  1  0
 10 11  1  0
 10 18  1  0
 11 12  1  0
 12 13  2  0
 12 17  1  0
 13 14  1  0
 13 39  1  0
 14 15  2  0
 14 40  1  0
 15 16  1  0
 15 41  1  0
 16 17  2  0
 16 42  1  0
 17 43  1  0
 18 19  1  0
 18 44  1  0
 18 45  1  0
 19 20  1  0
 19 32  1  0
 19 62  1  0
 20 21  1  0
 20 46  1  0
 20 47  1  0
 21 22  1  0
 21 48  1  0
 21 49  1  0
 22 23  1  0
 22 27  2  0
 23 24  2  0
 23 50  1  0
 24 25  1  0
 24 51  1  0
 25 26  2  0
 25 28  1  0
 26 27  1  0
 26 52  1  0
 27 53  1  0
 28 29  1  0
 28 54  1  0
 28 55  1  0
 29 30  1  0
 29 31  1  0
 30 56  1  0
 30 57  1  0
 30 58  1  0
 31 59  1  0
 31 60  1  0
 31 61  1  0
M  CHG  1  19   1
M  END
>  <s_epik_cmdline>  (23) 
J2VwaWtfcHl0aG9uJywgJy1waCcsICc3LjAwMDAwMCcsICctcGh0JywgJzIuMDAwMDAwJywgJy1tcycsICcxNicsICctdG4nLCAnOCcsICctbWEnLCAnMjAwJywgJy1pbWFlJywgJzxpbmZpbGUubWFlPicsICctb21hZScsICc8b3V0ZmlsZS5tYWU+Jw==

>  <s_epik_input>  (23) 
W2NIXTFbY0hdW2NIXVtjSF1bY0hdYzEtbjJuYygtYzNbY0hdW2NIXVtjSF1bY0hdW2NIXTMpYyhbY0hdMilbQ0gyXVtOSF1bQ0gyXVtDSDJdYzRbY0hdW2NIXWMoW2NIXVtjSF00KVtDSDJdTihbQ0gzXSlbQ0gzXQ==

>  <s_i_glide_gridfile>  (23) 
ATP-Grid

>  <s_lp_Force_Field>  (23) 
OPLS_2005

>  <s_lp_Variant>  (23) 
m_270004bbb____15775648____7547684-2

>  <s_lp_label>  (23) 
710_sdstereoexpander_1_neutralizer_1_epik_2_stereoizer_1

>  <s_m_source_file>  (23) 
ATP-VSW-LIGPREP-002-in.maegz

>  <s_sd_BIOSOLVEIT.INFINISEE\_QUERY\_NAME>  (23) 
Ref-Lig

>  <s_sd_BIOSOLVEIT.INFINISEE\_QUERY\_SMILES>  (23) 
S(c1nc2c(cc1C[NH2+]Cc3ccc(cc3)C[NH+](C)C)cccc2)Cc4ccccc4

>  <s_sd_BIOSOLVEIT.INFINISEE\_REACTION\_NAME>  (23) 
m_270004bbb

>  <s_sd_BIOSOLVEIT.INFINISEE\_REAGENT1\_SMILES>  (23) 
[R1*]NCCc1ccc(cc1)CN(C)C

>  <s_sd_BIOSOLVEIT.INFINISEE\_REAGENT2\_SMILES>  (23) 
[R1*]CC=1C(=NN(c2ccccc2)C1)c3ccccc3

>  <s_sd_BIOSOLVEIT.INFINISEE\_SPACE>  (23) 
REALSpace_44bn_2023-08

>  <s_vsw_compound_code>  (23) 
22690

>  <s_vsw_variant>  (23) 
22690-2

>  <r_epik_Charging_Adjusted_Penalty>  (23) 
1.5366075603790701

>  <r_epik_Ionization_Penalty>  (23) 
1.5099

>  <r_epik_Ionization_Penalty_Charging>  (23) 
0.0048999999999999998

>  <r_epik_Ionization_Penalty_Neutral>  (23) 
1.5048999999999999

>  <r_epik_State_Penalty>  (23) 
1.5317000000000001

>  <r_i_docking_score>  (23) 
-3.6153494182696702

>  <r_i_glide_ecoul>  (23) 
-9.0502958297729492

>  <r_i_glide_eff_state_penalty>  (23) 
1.5317000000000001

>  <r_i_glide_einternal>  (23) 
3.8535270690918

>  <r_i_glide_emodel>  (23) 
-58.8188812008407

>  <r_i_glide_energy>  (23) 
-41.004267692565897

>  <r_i_glide_erotb>  (23) 
0.93094244198405296

>  <r_i_glide_esite>  (23) 
-0.10000000000000001

>  <r_i_glide_evdw>  (23) 
-31.953971862793001

>  <r_i_glide_gscore>  (23) 
-5.1470494182696704

>  <r_i_glide_hbond>  (23) 
-0.36832945896486602

>  <r_i_glide_ligand_efficiency>  (23) 
-0.116624174782893

>  <r_i_glide_ligand_efficiency_ln>  (23) 
-0.81537209097324503

>  <r_i_glide_ligand_efficiency_sa>  (23) 
-0.36636092584473101

>  <r_i_glide_lipo>  (23) 
-1.7751762791335499

>  <r_i_glide_metal>  (23) 
-0

>  <r_i_glide_rewards>  (23) 
-0.87924315454971302

>  <r_lp_Energy>  (23) 
19.163235

>  <r_lp_tautomer_probability>  (23) 
1

>  <r_qp_ACxDN^.5/SA>  (23) 
0.0071634999999999997

>  <r_qp_CIQPlogS>  (23) 
-5.0499999999999998

>  <r_qp_EA(eV)>  (23) 
0.46300000000000002

>  <r_qp_FISA>  (23) 
14.016999999999999

>  <r_qp_FOSA>  (23) 
234.11500000000001

>  <r_qp_IP(eV)>  (23) 
8.6319999999999997

>  <r_qp_Jm>  (23) 
0.16606847800572

>  <r_qp_PISA>  (23) 
380.05000000000001

>  <r_qp_PSA>  (23) 
25.518000000000001

>  <r_qp_PercentHumanOralAbsorption>  (23) 
100

>  <r_qp_QPPCaco>  (23) 
453.70499999999998

>  <r_qp_QPPMDCK>  (23) 
257.70499999999998

>  <r_qp_QPlogBB>  (23) 
0.82499999999999996

>  <r_qp_QPlogHERG>  (23) 
-6.2889999999999997

>  <r_qp_QPlogKhsa>  (23) 
0.95999999999999996

>  <r_qp_QPlogKp>  (23) 
-3.8919999999999999

>  <r_qp_QPlogPC16>  (23) 
13.173999999999999

>  <r_qp_QPlogPo/w>  (23) 
4.7690000000000001

>  <r_qp_QPlogPoct>  (23) 
18.498999999999999

>  <r_qp_QPlogPw>  (23) 
8.2639999999999993

>  <r_qp_QPlogS>  (23) 
-2.5009999999999999

>  <r_qp_QPpolrz>  (23) 
44.223999999999997

>  <r_qp_SASA>  (23) 
628.18299999999999

>  <r_qp_SAamideO>  (23) 
0

>  <r_qp_SAfluorine>  (23) 
0

>  <r_qp_WPSA>  (23) 
0

>  <r_qp_accptHB>  (23) 
4.5

>  <r_qp_dip^2/V>  (23) 
0.0035233

>  <r_qp_dipole>  (23) 
2.1240000000000001

>  <r_qp_donorHB>  (23) 
1

>  <r_qp_glob>  (23) 
0.90778650000000005

>  <r_qp_mol_MW>  (23) 
410.56099999999998

>  <r_qp_volume>  (23) 
1280.433

>  <r_sd_BIOSOLVEIT.INFINISEE\_FTREES\_SIMILARITY>  (23) 
0.93000000000000005

>  <r_sd_BIOSOLVEIT.LOGP>  (23) 
2.4899

>  <r_sd_BIOSOLVEIT.MOLECULAR\_WEIGHT>  (23) 
412.57799999999997

>  <r_sd_BIOSOLVEIT.TPSA>  (23) 
38.869999999999997

>  <i_epik_Tot_Q>  (23) 
1

>  <i_epik_Tot_abs_Q>  (23) 
1

>  <i_f3d_flags>  (23) 
0

>  <i_i_glide_confnum>  (23) 
5

>  <i_i_glide_lignum>  (23) 
211

>  <i_i_glide_posenum>  (23) 
17

>  <i_i_glide_rotatable_bonds>  (23) 
9

>  <i_lp_mmshare_version>  (23) 
65135

>  <i_m_ct_format>  (23) 
2

>  <i_m_source_file_index>  (23) 
710

>  <i_qp_#NandO>  (23) 
4

>  <i_qp_#acid>  (23) 
0

>  <i_qp_#amide>  (23) 
0

>  <i_qp_#amidine>  (23) 
0

>  <i_qp_#amine>  (23) 
2

>  <i_qp_#in34>  (23) 
0

>  <i_qp_#in56>  (23) 
23

>  <i_qp_#metab>  (23) 
5

>  <i_qp_#nonHatm>  (23) 
31

>  <i_qp_#noncon>  (23) 
0

>  <i_qp_#ringatoms>  (23) 
23

>  <i_qp_#rotor>  (23) 
7

>  <i_qp_#rtvFG>  (23) 
0

>  <i_qp_#stars>  (23) 
0

>  <i_qp_CNS>  (23) 
2

>  <i_qp_HumanOralAbsorption>  (23) 
3

>  <i_qp_RuleOfFive>  (23) 
0

>  <i_qp_RuleOfThree>  (23) 
0

>  <i_sd_BIOSOLVEIT.INFINISEE\_REAGENT1\_NAME>  (23) 
15775648

>  <i_sd_BIOSOLVEIT.INFINISEE\_REAGENT2\_NAME>  (23) 
7547684

>  <i_sd_BIOSOLVEIT.INFINISEE\_RESULT\_RANK>  (23) 
5008

>  <i_sd_version>  (23) 
0

>  <b_lp_Chiralities_Consistent>  (23) 
1

>  <b_sd_chiral_flag>  (23) 
0

>  <canonical_id>  (23) 
ATP-HTVS-E80A62EE0257

>  <compound_code>  (23) 
22690

>  <title>  (23) 
m_270004bbb____15775648____7547684

>  <variant>  (23) 
22690-2

>  <source_file>  (23) 
运行/运行/ATP-VSW/ATP-VSW-DOCK_HTVS_1-002_lib.maegz

>  <canonical_smiles>  (23) 
CN(C)Cc1ccc(CC[NH2+]Cc2cn(-c3ccccc3)nc2-c2ccccc2)cc1

>  <scaffold>  (23) 
c1ccc(CC[NH2+]Cc2cn(-c3ccccc3)nc2-c2ccccc2)cc1

>  <molecular_formula>  (23) 
C27H31N4+

>  <acquisition_id_v2>  (23) 
ATP-ACQ2-0023

>  <selection_arm_v2>  (23) 
local_structure_bridge

>  <priority_v2>  (23) 
P0

$$$$
ATP-ACQ2-0024
     RDKit          3D

 58 61  0  0  0  0  0  0  0  0999 V2000
  197.5447  177.8554  148.5062 Cl  0  0  0  0  0  0  0  0  0  0  0  0
  197.4258  178.8104  149.9391 C   0  0  0  0  0  0  0  0  0  0  0  0
  198.2663  178.5474  151.0350 C   0  0  0  0  0  0  0  0  0  0  0  0
  198.1548  179.3163  152.2086 C   0  0  0  0  0  0  0  0  0  0  0  0
  197.2089  180.3630  152.3021 C   0  0  0  0  0  0  0  0  0  0  0  0
  196.3526  180.6070  151.2042 C   0  0  0  0  0  0  0  0  0  0  0  0
  196.4649  179.8358  150.0276 C   0  0  0  0  0  0  0  0  0  0  0  0
  197.1159  181.1962  153.5238 C   0  0  0  0  0  0  0  0  0  0  0  0
  197.9127  181.1019  154.5132 N   0  0  0  0  0  0  0  0  0  0  0  0
  197.7423  181.8523  155.6880 N   0  0  0  0  0  0  0  0  0  0  0  0
  198.7612  182.1359  156.5170 C   0  0  0  0  0  0  0  0  0  0  0  0
  198.2404  182.8023  157.5484 N   0  0  0  0  0  0  0  0  0  0  0  0
  196.8973  182.9415  157.3671 C   0  0  0  0  0  0  0  0  0  0  0  0
  196.0450  183.6544  158.3225 C   0  0  0  0  0  0  0  0  0  0  0  0
  194.6744  183.3423  158.4177 C   0  0  0  0  0  0  0  0  0  0  0  0
  193.8399  184.0280  159.3111 C   0  0  0  0  0  0  0  0  0  0  0  0
  194.3671  185.0415  160.1319 C   0  0  0  0  0  0  0  0  0  0  0  0
  195.7356  185.3537  160.0678 C   0  0  0  0  0  0  0  0  0  0  0  0
  196.5657  184.6705  159.1603 C   0  0  0  0  0  0  0  0  0  0  0  0
  196.5527  182.3082  156.1938 C   0  0  0  0  0  0  0  0  0  0  0  0
  200.0397  181.7874  156.3634 N   0  0  0  0  0  0  0  0  0  0  0  0
  200.9952  181.6610  157.3839 C   0  0  0  0  0  0  0  0  0  0  0  0
  201.7267  180.4588  157.5153 C   0  0  0  0  0  0  0  0  0  0  0  0
  202.6882  180.3437  158.5483 C   0  0  0  0  0  0  0  0  0  0  0  0
  202.9269  181.4079  159.4374 C   0  0  0  0  0  0  0  0  0  0  0  0
  202.1967  182.6001  159.3053 C   0  0  0  0  0  0  0  0  0  0  0  0
  201.2376  182.7258  158.2836 C   0  0  0  0  0  0  0  0  0  0  0  0
  201.5284  179.2969  156.5376 C   0  0  1  0  0  0  0  0  0  0  0  0
  202.7462  179.0461  155.7209 N   0  0  0  0  0  0  0  0  0  0  0  0
  203.3299  180.2752  155.1161 C   0  0  0  0  0  0  0  0  0  0  0  0
  202.5620  177.9899  154.6988 C   0  0  0  0  0  0  0  0  0  0  0  0
  201.1797  178.0437  157.2277 C   0  0  0  0  0  0  0  0  0  0  0  0
  200.9102  177.0532  157.7618 N   0  0  0  0  0  0  0  0  0  0  0  0
  198.9925  177.7512  150.9743 H   0  0  0  0  0  0  0  0  0  0  0  0
  198.8150  179.0911  153.0323 H   0  0  0  0  0  0  0  0  0  0  0  0
  195.6188  181.3982  151.2514 H   0  0  0  0  0  0  0  0  0  0  0  0
  195.8176  180.0242  149.1841 H   0  0  0  0  0  0  0  0  0  0  0  0
  196.3018  181.9246  153.5393 H   0  0  0  0  0  0  0  0  0  0  0  0
  194.2433  182.5868  157.7713 H   0  0  0  0  0  0  0  0  0  0  0  0
  192.7814  183.8059  159.3371 H   0  0  0  0  0  0  0  0  0  0  0  0
  193.7168  185.5730  160.8102 H   0  0  0  0  0  0  0  0  0  0  0  0
  196.1443  186.1336  160.6964 H   0  0  0  0  0  0  0  0  0  0  0  0
  197.6088  184.9433  159.1006 H   0  0  0  0  0  0  0  0  0  0  0  0
  195.5883  182.1762  155.7190 H   0  0  0  0  0  0  0  0  0  0  0  0
  200.2628  181.3000  155.5102 H   0  0  0  0  0  0  0  0  0  0  0  0
  203.2777  179.4424  158.6406 H   0  0  0  0  0  0  0  0  0  0  0  0
  203.6923  181.3299  160.2007 H   0  0  0  0  0  0  0  0  0  0  0  0
  202.3910  183.4316  159.9666 H   0  0  0  0  0  0  0  0  0  0  0  0
  200.7291  183.6724  158.1738 H   0  0  0  0  0  0  0  0  0  0  0  0
  202.6275  180.7127  154.4063 H   0  0  0  0  0  0  0  0  0  0  0  0
  204.2524  180.0497  154.5840 H   0  0  0  0  0  0  0  0  0  0  0  0
  203.5869  181.0467  155.8390 H   0  0  0  0  0  0  0  0  0  0  0  0
  201.8062  178.2814  153.9664 H   0  0  0  0  0  0  0  0  0  0  0  0
  202.2659  177.0364  155.1353 H   0  0  0  0  0  0  0  0  0  0  0  0
  203.4953  177.8146  154.1682 H   0  0  0  0  0  0  0  0  0  0  0  0
  200.6928  179.4639  155.8522 H   0  0  0  0  0  0  0  0  0  0  0  0
  198.7576  183.1405  158.3482 H   0  0  0  0  0  0  0  0  0  0  0  0
  203.4313  178.6676  156.3761 H   0  0  0  0  0  0  0  0  0  0  0  0
  1  2  1  0
  2  3  1  0
  2  7  2  0
  3  4  2  0
  3 34  1  0
  4  5  1  0
  4 35  1  0
  5  6  2  0
  5  8  1  0
  6  7  1  0
  6 36  1  0
  7 37  1  0
  8  9  2  0
  8 38  1  0
  9 10  1  0
 10 11  1  0
 10 20  1  0
 11 12  2  0
 11 21  1  0
 12 13  1  0
 12 57  1  0
 13 14  1  0
 13 20  2  0
 14 15  2  0
 14 19  1  0
 15 16  1  0
 15 39  1  0
 16 17  2  0
 16 40  1  0
 17 18  1  0
 17 41  1  0
 18 19  2  0
 18 42  1  0
 19 43  1  0
 20 44  1  0
 21 22  1  0
 21 45  1  0
 22 23  1  0
 22 27  2  0
 23 24  2  0
 23 28  1  0
 24 25  1  0
 24 46  1  0
 25 26  2  0
 25 47  1  0
 26 27  1  0
 26 48  1  0
 27 49  1  0
 28 29  1  0
 28 32  1  0
 28 56  1  6
 29 30  1  0
 29 31  1  0
 29 58  1  0
 30 50  1  0
 30 51  1  0
 30 52  1  0
 31 53  1  0
 31 54  1  0
 31 55  1  0
 32 33  3  0
M  CHG  2  12   1  29   1
M  END
>  <s_epik_Chemistry_Notes>  (24) 
This compound has an imine and may undergo hydrolysis.

>  <s_epik_cmdline>  (24) 
J2VwaWtfcHl0aG9uJywgJy1waCcsICc3LjAwMDAwMCcsICctcGh0JywgJzIuMDAwMDAwJywgJy1tcycsICcxNicsICctdG4nLCAnOCcsICctbWEnLCAnMjAwJywgJy1pbWFlJywgJzxpbmZpbGUubWFlPicsICctb21hZScsICc8b3V0ZmlsZS5tYWU+Jw==

>  <s_epik_input>  (24) 
Q2xjMVtjSF1bY0hdYyhbY0hdW2NIXTEpL1tDSF09Ti9uMmMoW05IXWMzYyhbQ0BIXShDI04pTihbQ0gzXSlbQ0gzXSlbY0hdW2NIXVtjSF1bY0hdMyluYyhbY0hdMiktYzRbY0hdW2NIXVtjSF1bY0hdW2NIXTQ=

>  <s_i_glide_gridfile>  (24) 
ATP-Grid

>  <s_lp_Force_Field>  (24) 
OPLS_2005

>  <s_lp_Variant>  (24) 
rxn102c____EMOL3728737____EMOL50763906-5

>  <s_lp_label>  (24) 
2506_sdstereoexpander_1_neutralizer_1_epik_3_stereoizer_1

>  <s_m_source_file>  (24) 
ATP-VSW-LIGPREP-003-in.maegz

>  <s_sd_BIOSOLVEIT.INFINISEE\_QUERY\_NAME>  (24) 
Ref-Lig

>  <s_sd_BIOSOLVEIT.INFINISEE\_QUERY\_SMILES>  (24) 
S(c1nc2c(cc1C[NH2+]Cc3ccc(cc3)C[NH+](C)C)cccc2)Cc4ccccc4

>  <s_sd_BIOSOLVEIT.INFINISEE\_REACTION\_NAME>  (24) 
rxn102c

>  <s_sd_BIOSOLVEIT.INFINISEE\_REAGENT1\_NAME>  (24) 
EMOL3728737

>  <s_sd_BIOSOLVEIT.INFINISEE\_REAGENT1\_SMILES>  (24) 
Clc1c(cccc1)C(N(C)C)C#N

>  <s_sd_BIOSOLVEIT.INFINISEE\_REAGENT2\_NAME>  (24) 
EMOL50763906

>  <s_sd_BIOSOLVEIT.INFINISEE\_REAGENT2\_SMILES>  (24) 
Clc1ccc(cc1)C=NN2C(=NC(c3ccccc3)=C2)N

>  <s_sd_BIOSOLVEIT.INFINISEE\_SPACE>  (24) 
eXplore_7tr_2022-12

>  <s_vsw_compound_code>  (24) 
80163

>  <s_vsw_variant>  (24) 
80163-5

>  <r_epik_Charging_Adjusted_Penalty>  (24) 
3.0976700076955499

>  <r_epik_Ionization_Penalty>  (24) 
1.7562

>  <r_epik_Ionization_Penalty_Charging>  (24) 
1.4306000000000001

>  <r_epik_Ionization_Penalty_Neutral>  (24) 
0.3256

>  <r_epik_State_Penalty>  (24) 
1.6671

>  <r_i_docking_score>  (24) 
-3.6732833036651802

>  <r_i_glide_ecoul>  (24) 
-11.470827102661101

>  <r_i_glide_eff_state_penalty>  (24) 
1.6671

>  <r_i_glide_einternal>  (24) 
5.7091264724731401

>  <r_i_glide_emodel>  (24) 
-67.187426248152804

>  <r_i_glide_energy>  (24) 
-46.405603408813498

>  <r_i_glide_erotb>  (24) 
0.57756189636664401

>  <r_i_glide_esite>  (24) 
-0.101858237561232

>  <r_i_glide_evdw>  (24) 
-34.934776306152301

>  <r_i_glide_gscore>  (24) 
-5.3403833036651802

>  <r_i_glide_hbond>  (24) 
0

>  <r_i_glide_ligand_efficiency>  (24) 
-0.111311615262581

>  <r_i_glide_ligand_efficiency_ln>  (24) 
-0.81691918749207904

>  <r_i_glide_ligand_efficiency_sa>  (24) 
-0.35703582686589103

>  <r_i_glide_lipo>  (24) 
-1.52713437411899

>  <r_i_glide_metal>  (24) 
-0

>  <r_i_glide_rewards>  (24) 
-0.82158970764482198

>  <r_lp_Energy>  (24) 
41.914414999999998

>  <r_qp_ACxDN^.5/SA>  (24) 
0.0091658

>  <r_qp_CIQPlogS>  (24) 
-6.9900000000000002

>  <r_qp_EA(eV)>  (24) 
1.127

>  <r_qp_FISA>  (24) 
80.926000000000002

>  <r_qp_FOSA>  (24) 
134.345

>  <r_qp_IP(eV)>  (24) 
8.1010000000000009

>  <r_qp_Jm>  (24) 
0.00050426977390006405

>  <r_qp_PISA>  (24) 
476.774

>  <r_qp_PSA>  (24) 
62.545000000000002

>  <r_qp_PercentHumanOralAbsorption>  (24) 
100

>  <r_qp_QPPCaco>  (24) 
422.06599999999997

>  <r_qp_QPPMDCK>  (24) 
531.96299999999997

>  <r_qp_QPlogBB>  (24) 
-0.193

>  <r_qp_QPlogHERG>  (24) 
-7.8109999999999999

>  <r_qp_QPlogKhsa>  (24) 
0.72099999999999997

>  <r_qp_QPlogKp>  (24) 
-2.6259999999999999

>  <r_qp_QPlogPC16>  (24) 
16.059999999999999

>  <r_qp_QPlogPo/w>  (24) 
4.9560000000000004

>  <r_qp_QPlogPoct>  (24) 
22.434999999999999

>  <r_qp_QPlogPw>  (24) 
11.970000000000001

>  <r_qp_QPlogS>  (24) 
-6.3289999999999997

>  <r_qp_QPpolrz>  (24) 
49.810000000000002

>  <r_qp_SASA>  (24) 
763.70799999999997

>  <r_qp_SAamideO>  (24) 
0

>  <r_qp_SAfluorine>  (24) 
0

>  <r_qp_WPSA>  (24) 
71.662999999999997

>  <r_qp_accptHB>  (24) 
7

>  <r_qp_dip^2/V>  (24) 
0.0186109

>  <r_qp_dipole>  (24) 
5.1280000000000001

>  <r_qp_donorHB>  (24) 
1

>  <r_qp_glob>  (24) 
0.797377

>  <r_qp_mol_MW>  (24) 
454.96100000000001

>  <r_qp_volume>  (24) 
1412.989

>  <r_sd_BIOSOLVEIT.INFINISEE\_FTREES\_SIMILARITY>  (24) 
0.91400000000000003

>  <r_sd_BIOSOLVEIT.LOGP>  (24) 
4.5384799999999998

>  <r_sd_BIOSOLVEIT.MOLECULAR\_WEIGHT>  (24) 
455.971

>  <r_sd_BIOSOLVEIT.TPSA>  (24) 
70.439999999999998

>  <i_epik_Tot_Q>  (24) 
2

>  <i_epik_Tot_abs_Q>  (24) 
2

>  <i_f3d_flags>  (24) 
0

>  <i_i_glide_confnum>  (24) 
3

>  <i_i_glide_lignum>  (24) 
1090

>  <i_i_glide_posenum>  (24) 
1

>  <i_i_glide_rotatable_bonds>  (24) 
7

>  <i_lp_mmshare_version>  (24) 
65135

>  <i_m_ct_format>  (24) 
2

>  <i_m_source_file_index>  (24) 
2506

>  <i_qp_#NandO>  (24) 
6

>  <i_qp_#acid>  (24) 
0

>  <i_qp_#amide>  (24) 
0

>  <i_qp_#amidine>  (24) 
0

>  <i_qp_#amine>  (24) 
1

>  <i_qp_#in34>  (24) 
0

>  <i_qp_#in56>  (24) 
23

>  <i_qp_#metab>  (24) 
4

>  <i_qp_#nonHatm>  (24) 
33

>  <i_qp_#noncon>  (24) 
0

>  <i_qp_#ringatoms>  (24) 
23

>  <i_qp_#rotor>  (24) 
8

>  <i_qp_#rtvFG>  (24) 
0

>  <i_qp_#stars>  (24) 
1

>  <i_qp_CNS>  (24) 
1

>  <i_qp_HumanOralAbsorption>  (24) 
1

>  <i_qp_RuleOfFive>  (24) 
0

>  <i_qp_RuleOfThree>  (24) 
1

>  <i_sd_BIOSOLVEIT.INFINISEE\_RESULT\_RANK>  (24) 
31327

>  <i_sd_version>  (24) 
0

>  <b_lp_Chiralities_Consistent>  (24) 
1

>  <b_sd_chiral_flag>  (24) 
0

>  <canonical_id>  (24) 
ATP-HTVS-B9C46F2E092C

>  <compound_code>  (24) 
80163

>  <title>  (24) 
rxn102c____EMOL3728737____EMOL50763906

>  <variant>  (24) 
80163-5

>  <source_file>  (24) 
运行/运行/ATP-VSW/ATP-VSW-DOCK_HTVS_1-003_lib/ATP-VSW-DOCK_HTVS_1-003_lib.mae

>  <canonical_smiles>  (24) 
C[NH+](C)[C@@H](C#N)c1ccccc1Nc1[nH+]c(-c2ccccc2)cn1/N=C/c1ccc(Cl)cc1

>  <scaffold>  (24) 
C(=Nn1cc(-c2ccccc2)[nH+]c1Nc1ccccc1)c1ccccc1

>  <molecular_formula>  (24) 
C26H25ClN6+2

>  <acquisition_id_v2>  (24) 
ATP-ACQ2-0024

>  <selection_arm_v2>  (24) 
scaffold_score_exploration

>  <priority_v2>  (24) 
P0

$$$$
ATP-ACQ2-0025
     RDKit          3D

 47 50  0  0  0  0  0  0  0  0999 V2000
  193.4746  186.6987  162.0290 Cl  0  0  0  0  0  0  0  0  0  0  0  0
  194.6834  186.1053  160.9393 C   0  0  0  0  0  0  0  0  0  0  0  0
  194.3963  184.9868  160.1309 C   0  0  0  0  0  0  0  0  0  0  0  0
  195.3896  184.4494  159.2815 C   0  0  0  0  0  0  0  0  0  0  0  0
  196.6508  185.0887  159.2304 C   0  0  0  0  0  0  0  0  0  0  0  0
  196.9420  186.1917  160.0474 C   0  0  0  0  0  0  0  0  0  0  0  0
  195.9594  186.7038  160.9182 C   0  0  0  0  0  0  0  0  0  0  0  0
  195.1244  183.2713  158.3494 C   0  0  2  0  0  0  0  0  0  0  0  0
  193.8459  182.6697  158.5245 O   0  0  0  0  0  0  0  0  0  0  0  0
  196.1721  182.1393  158.4428 C   0  0  0  0  0  0  0  0  0  0  0  0
  196.3217  181.4445  157.1333 N   0  0  0  0  0  0  0  0  0  0  0  0
  197.6353  181.6203  156.4697 C   0  0  2  0  0  0  0  0  0  0  0  0
  198.0436  183.0942  156.3228 C   0  0  0  0  0  0  0  0  0  0  0  0
  197.2598  183.8698  155.5421 N   0  0  0  0  0  0  0  0  0  0  0  0
  197.5480  185.1864  155.4414 C   0  0  0  0  0  0  0  0  0  0  0  0
  198.6121  185.7964  156.1299 C   0  0  0  0  0  0  0  0  0  0  0  0
  199.4296  184.9951  156.9465 C   0  0  0  0  0  0  0  0  0  0  0  0
  199.1420  183.6170  157.0481 C   0  0  0  0  0  0  0  0  0  0  0  0
  197.6506  180.9156  155.1499 C   0  0  0  0  0  0  0  0  0  0  0  0
  198.6908  180.0576  154.9203 O   0  0  0  0  0  0  0  0  0  0  0  0
  198.5122  179.5528  153.6543 C   0  0  0  0  0  0  0  0  0  0  0  0
  197.3377  180.1045  153.0809 C   0  0  0  0  0  0  0  0  0  0  0  0
  197.0020  179.6904  151.7735 C   0  0  0  0  0  0  0  0  0  0  0  0
  197.8175  178.7657  151.0791 C   0  0  0  0  0  0  0  0  0  0  0  0
  198.9799  178.2383  151.6819 C   0  0  0  0  0  0  0  0  0  0  0  0
  199.3385  178.6362  152.9819 C   0  0  0  0  0  0  0  0  0  0  0  0
  196.8054  180.9995  154.0679 C   0  0  0  0  0  0  0  0  0  0  0  0
  196.1440  180.4429  157.3261 H   0  0  0  0  0  0  0  0  0  0  0  0
  193.4049  184.5535  160.1636 H   0  0  0  0  0  0  0  0  0  0  0  0
  197.4117  184.7328  158.5580 H   0  0  0  0  0  0  0  0  0  0  0  0
  197.9335  186.6218  160.0184 H   0  0  0  0  0  0  0  0  0  0  0  0
  196.2028  187.5355  161.5725 H   0  0  0  0  0  0  0  0  0  0  0  0
  195.1571  183.7121  157.3571 H   0  0  0  0  0  0  0  0  0  0  0  0
  193.5657  182.3146  157.6855 H   0  0  0  0  0  0  0  0  0  0  0  0
  197.1514  182.4814  158.7877 H   0  0  0  0  0  0  0  0  0  0  0  0
  195.8693  181.4211  159.2074 H   0  0  0  0  0  0  0  0  0  0  0  0
  198.3707  181.1424  157.1207 H   0  0  0  0  0  0  0  0  0  0  0  0
  196.8907  185.7749  154.8204 H   0  0  0  0  0  0  0  0  0  0  0  0
  198.7752  186.8648  156.0551 H   0  0  0  0  0  0  0  0  0  0  0  0
  200.2159  185.4382  157.5379 H   0  0  0  0  0  0  0  0  0  0  0  0
  199.7232  182.9944  157.7087 H   0  0  0  0  0  0  0  0  0  0  0  0
  196.1179  180.0922  151.3007 H   0  0  0  0  0  0  0  0  0  0  0  0
  197.5501  178.4568  150.0804 H   0  0  0  0  0  0  0  0  0  0  0  0
  199.5933  177.5258  151.1481 H   0  0  0  0  0  0  0  0  0  0  0  0
  200.2220  178.2480  153.4675 H   0  0  0  0  0  0  0  0  0  0  0  0
  195.9389  181.6365  153.9702 H   0  0  0  0  0  0  0  0  0  0  0  0
  195.6019  181.7599  156.4920 H   0  0  0  0  0  0  0  0  0  0  0  0
  1  2  1  0
  2  3  2  0
  2  7  1  0
  3  4  1  0
  3 29  1  0
  4  5  2  0
  4  8  1  0
  5  6  1  0
  5 30  1  0
  6  7  2  0
  6 31  1  0
  7 32  1  0
  8  9  1  0
  8 10  1  0
  8 33  1  6
  9 34  1  0
 10 11  1  0
 10 35  1  0
 10 36  1  0
 11 12  1  0
 11 28  1  0
 11 47  1  0
 12 13  1  0
 12 19  1  0
 12 37  1  1
 13 14  1  0
 13 18  2  0
 14 15  2  0
 15 16  1  0
 15 38  1  0
 16 17  2  0
 16 39  1  0
 17 18  1  0
 17 40  1  0
 18 41  1  0
 19 20  1  0
 19 27  2  0
 20 21  1  0
 21 22  1  0
 21 26  2  0
 22 23  2  0
 22 27  1  0
 23 24  1  0
 23 42  1  0
 24 25  2  0
 24 43  1  0
 25 26  1  0
 25 44  1  0
 26 45  1  0
 27 46  1  0
M  CHG  1  11   1
M  END
>  <s_epik_cmdline>  (25) 
J2VwaWtfcHl0aG9uJywgJy1waCcsICc3LjAwMDAwMCcsICctcGh0JywgJzIuMDAwMDAwJywgJy1tcycsICcxNicsICctdG4nLCAnOCcsICctbWEnLCAnMjAwJywgJy1pbWFlJywgJzxpbmZpbGUubWFlPicsICctb21hZScsICc8b3V0ZmlsZS5tYWU+Jw==

>  <s_epik_input>  (25) 
Q2xjMVtjSF1jKFtjSF1bY0hdW2NIXTEpW0NASF0oW09IXSlbQ0gyXVtOSF1bQ0BIXShjMm5bY0hdW2NIXVtjSF1bY0hdMiljKG8zKVtjSF1jKGMzNClbY0hdW2NIXVtjSF1bY0hdNA==

>  <s_i_glide_gridfile>  (25) 
ATP-Grid

>  <s_lp_Force_Field>  (25) 
OPLS_2005

>  <s_lp_Variant>  (25) 
m_269862bba____8257516____13192834-2

>  <s_lp_label>  (25) 
1077_sdstereoexpander_2_neutralizer_1_epik_1_stereoizer_1

>  <s_m_source_file>  (25) 
ATP-VSW-LIGPREP-002-in.maegz

>  <s_sd_BIOSOLVEIT.INFINISEE\_QUERY\_NAME>  (25) 
Ref-Lig

>  <s_sd_BIOSOLVEIT.INFINISEE\_QUERY\_SMILES>  (25) 
S(c1nc2c(cc1C[NH2+]Cc3ccc(cc3)C[NH+](C)C)cccc2)Cc4ccccc4

>  <s_sd_BIOSOLVEIT.INFINISEE\_REACTION\_NAME>  (25) 
m_269862bba

>  <s_sd_BIOSOLVEIT.INFINISEE\_REAGENT1\_SMILES>  (25) 
[R1*]NCC(O)c1cc(Cl)ccc1

>  <s_sd_BIOSOLVEIT.INFINISEE\_REAGENT2\_SMILES>  (25) 
[R1*]C(c1ncccc1)C=2Oc3c(cccc3)C2

>  <s_sd_BIOSOLVEIT.INFINISEE\_SPACE>  (25) 
REALSpace_44bn_2023-08

>  <s_vsw_compound_code>  (25) 
34434

>  <s_vsw_variant>  (25) 
34434-2

>  <r_epik_Charging_Adjusted_Penalty>  (25) 
0.12574514795471001

>  <r_epik_Ionization_Penalty>  (25) 
0.062899999999999998

>  <r_epik_Ionization_Penalty_Charging>  (25) 
0.062899999999999998

>  <r_epik_Ionization_Penalty_Neutral>  (25) 
0

>  <r_epik_State_Penalty>  (25) 
0.062899999999999998

>  <r_i_docking_score>  (25) 
-6.4687503210637898

>  <r_i_glide_ecoul>  (25) 
-15.1869411468506

>  <r_i_glide_eff_state_penalty>  (25) 
0.062899999999999998

>  <r_i_glide_einternal>  (25) 
7.9403195381164604

>  <r_i_glide_emodel>  (25) 
-73.565872235657096

>  <r_i_glide_energy>  (25) 
-48.603197097778299

>  <r_i_glide_erotb>  (25) 
0.67204726597247899

>  <r_i_glide_esite>  (25) 
-0.10000000000000001

>  <r_i_glide_evdw>  (25) 
-33.416255950927699

>  <r_i_glide_gscore>  (25) 
-6.5316503210637897

>  <r_i_glide_hbond>  (25) 
-0.28018996653106298

>  <r_i_glide_ligand_efficiency>  (25) 
-0.23958334522458499

>  <r_i_glide_ligand_efficiency_ln>  (25) 
-1.5058184290598

>  <r_i_glide_ligand_efficiency_sa>  (25) 
-0.71875003488412703

>  <r_i_glide_lipo>  (25) 
-1.8305111509312399

>  <r_i_glide_metal>  (25) 
-0

>  <r_i_glide_rewards>  (25) 
-1.0441425

>  <r_lp_Energy>  (25) 
11.539745999999999

>  <r_qp_ACxDN^.5/SA>  (25) 
0.0096641000000000001

>  <r_qp_CIQPlogS>  (25) 
-5.1680000000000001

>  <r_qp_EA(eV)>  (25) 
0.42199999999999999

>  <r_qp_FISA>  (25) 
52.396000000000001

>  <r_qp_FOSA>  (25) 
41.549999999999997

>  <r_qp_IP(eV)>  (25) 
8.7129999999999992

>  <r_qp_Jm>  (25) 
0.043350441263572299

>  <r_qp_PISA>  (25) 
522.25099999999998

>  <r_qp_PSA>  (25) 
51.195

>  <r_qp_PercentHumanOralAbsorption>  (25) 
100

>  <r_qp_QPPCaco>  (25) 
786.91200000000003

>  <r_qp_QPPMDCK>  (25) 
1042.0309999999999

>  <r_qp_QPlogBB>  (25) 
0.159

>  <r_qp_QPlogHERG>  (25) 
-8.1099999999999994

>  <r_qp_QPlogKhsa>  (25) 
0.58499999999999996

>  <r_qp_QPlogKp>  (25) 
-2.036

>  <r_qp_QPlogPC16>  (25) 
14.375

>  <r_qp_QPlogPo/w>  (25) 
4.633

>  <r_qp_QPlogPoct>  (25) 
19.672000000000001

>  <r_qp_QPlogPw>  (25) 
11.323

>  <r_qp_QPlogS>  (25) 
-4.9059999999999997

>  <r_qp_QPpolrz>  (25) 
42.206000000000003

>  <r_qp_SASA>  (25) 
687.78300000000002

>  <r_qp_SAamideO>  (25) 
0

>  <r_qp_SAfluorine>  (25) 
0

>  <r_qp_WPSA>  (25) 
71.584999999999994

>  <r_qp_accptHB>  (25) 
4.7000000000000002

>  <r_qp_dip^2/V>  (25) 
0.0049458000000000002

>  <r_qp_dipole>  (25) 
2.4319999999999999

>  <r_qp_donorHB>  (25) 
2

>  <r_qp_glob>  (25) 
0.79229190000000005

>  <r_qp_mol_MW>  (25) 
378.85700000000003

>  <r_qp_volume>  (25) 
1196.0709999999999

>  <r_sd_BIOSOLVEIT.INFINISEE\_FTREES\_SIMILARITY>  (25) 
0.91400000000000003

>  <r_sd_BIOSOLVEIT.LOGP>  (25) 
3.8675999999999999

>  <r_sd_BIOSOLVEIT.MOLECULAR\_WEIGHT>  (25) 
379.86500000000001

>  <r_sd_BIOSOLVEIT.TPSA>  (25) 
62.869999999999997

>  <i_epik_Tot_Q>  (25) 
1

>  <i_epik_Tot_abs_Q>  (25) 
1

>  <i_f3d_flags>  (25) 
0

>  <i_i_glide_confnum>  (25) 
4

>  <i_i_glide_lignum>  (25) 
346

>  <i_i_glide_posenum>  (25) 
20

>  <i_i_glide_rotatable_bonds>  (25) 
7

>  <i_lp_mmshare_version>  (25) 
65135

>  <i_m_ct_format>  (25) 
2

>  <i_m_source_file_index>  (25) 
1077

>  <i_qp_#NandO>  (25) 
4

>  <i_qp_#acid>  (25) 
0

>  <i_qp_#amide>  (25) 
0

>  <i_qp_#amidine>  (25) 
0

>  <i_qp_#amine>  (25) 
1

>  <i_qp_#in34>  (25) 
0

>  <i_qp_#in56>  (25) 
21

>  <i_qp_#metab>  (25) 
7

>  <i_qp_#nonHatm>  (25) 
27

>  <i_qp_#noncon>  (25) 
0

>  <i_qp_#ringatoms>  (25) 
21

>  <i_qp_#rotor>  (25) 
7

>  <i_qp_#rtvFG>  (25) 
0

>  <i_qp_#stars>  (25) 
1

>  <i_qp_CNS>  (25) 
1

>  <i_qp_HumanOralAbsorption>  (25) 
3

>  <i_qp_RuleOfFive>  (25) 
0

>  <i_qp_RuleOfThree>  (25) 
1

>  <i_sd_BIOSOLVEIT.INFINISEE\_REAGENT1\_NAME>  (25) 
8257516

>  <i_sd_BIOSOLVEIT.INFINISEE\_REAGENT2\_NAME>  (25) 
13192834

>  <i_sd_BIOSOLVEIT.INFINISEE\_RESULT\_RANK>  (25) 
31739

>  <i_sd_version>  (25) 
0

>  <b_lp_Chiralities_Consistent>  (25) 
1

>  <b_sd_chiral_flag>  (25) 
0

>  <canonical_id>  (25) 
ATP-HTVS-2AD5F3716208

>  <compound_code>  (25) 
34434

>  <title>  (25) 
m_269862bba____8257516____13192834

>  <variant>  (25) 
34434-2

>  <source_file>  (25) 
运行/运行/ATP-VSW/ATP-VSW-DOCK_HTVS_1-002_lib.maegz

>  <canonical_smiles>  (25) 
O[C@H](C[NH2+][C@H](c1ccccn1)c1cc2ccccc2o1)c1cccc(Cl)c1

>  <scaffold>  (25) 
c1ccc(CC[NH2+]C(c2ccccn2)c2cc3ccccc3o2)cc1

>  <molecular_formula>  (25) 
C22H20ClN2O2+

>  <acquisition_id_v2>  (25) 
ATP-ACQ2-0025

>  <selection_arm_v2>  (25) 
exploitation

>  <priority_v2>  (25) 
P1

$$$$
ATP-ACQ2-0026
     RDKit          3D

 58 61  0  0  0  0  0  0  0  0999 V2000
  201.1613  177.4262  157.9226 N   0  0  0  0  0  0  0  0  0  0  0  0
  200.7011  176.6243  156.9428 C   0  0  0  0  0  0  0  0  0  0  0  0
  200.0621  177.1163  155.7952 C   0  0  0  0  0  0  0  0  0  0  0  0
  199.9524  178.5146  155.6240 C   0  0  0  0  0  0  0  0  0  0  0  0
  200.5009  179.3527  156.6181 C   0  0  0  0  0  0  0  0  0  0  0  0
  201.1014  178.7533  157.7371 C   0  0  0  0  0  0  0  0  0  0  0  0
  199.2583  179.0741  154.4546 C   0  0  0  0  0  0  0  0  0  0  0  0
  199.2310  178.3945  153.3184 N   0  0  0  0  0  0  0  0  0  0  0  0
  198.4668  179.1043  152.4516 N   0  0  0  0  0  0  0  0  0  0  0  0
  198.1925  178.6191  151.1430 C   0  0  0  0  0  0  0  0  0  0  0  0
  198.7311  177.3841  150.7027 C   0  0  0  0  0  0  0  0  0  0  0  0
  198.4658  176.9088  149.4040 C   0  0  0  0  0  0  0  0  0  0  0  0
  197.6560  177.6576  148.5311 C   0  0  0  0  0  0  0  0  0  0  0  0
  197.1035  178.8764  148.9637 C   0  0  0  0  0  0  0  0  0  0  0  0
  197.3658  179.3550  150.2627 C   0  0  0  0  0  0  0  0  0  0  0  0
  198.0496  180.2760  153.0479 C   0  0  0  0  0  0  0  0  0  0  0  0
  198.5233  180.2935  154.3277 C   0  0  0  0  0  0  0  0  0  0  0  0
  198.2739  181.3630  155.3481 C   0  0  0  0  0  0  0  0  0  0  0  0
  197.5833  180.7964  156.5353 N   0  0  0  0  0  0  0  0  0  0  0  0
  197.2553  181.7871  157.5751 C   0  0  0  0  0  0  0  0  0  0  0  0
  196.0884  182.6829  157.1349 C   0  0  0  0  0  0  0  0  0  0  0  0
  195.7262  183.7064  158.1799 C   0  0  0  0  0  0  0  0  0  0  0  0
  196.5988  184.7728  158.4662 C   0  0  0  0  0  0  0  0  0  0  0  0
  196.2311  185.7449  159.4198 C   0  0  0  0  0  0  0  0  0  0  0  0
  194.9805  185.6730  160.0889 C   0  0  0  0  0  0  0  0  0  0  0  0
  194.5898  186.6520  161.0344 N   0  0  0  0  0  0  0  0  0  0  0  0
  195.4835  187.7675  161.3196 C   0  0  0  0  0  0  0  0  0  0  0  0
  193.2201  186.6994  161.5387 C   0  0  0  0  0  0  0  0  0  0  0  0
  194.1149  184.6041  159.7517 C   0  0  0  0  0  0  0  0  0  0  0  0
  194.4846  183.6224  158.8228 C   0  0  0  0  0  0  0  0  0  0  0  0
  196.7247  180.3217  156.2964 H   0  0  0  0  0  0  0  0  0  0  0  0
  200.8604  175.5631  157.0809 H   0  0  0  0  0  0  0  0  0  0  0  0
  199.6807  176.4209  155.0598 H   0  0  0  0  0  0  0  0  0  0  0  0
  200.5118  180.4286  156.5478 H   0  0  0  0  0  0  0  0  0  0  0  0
  201.5510  179.3619  158.5078 H   0  0  0  0  0  0  0  0  0  0  0  0
  199.3545  176.7892  151.3541 H   0  0  0  0  0  0  0  0  0  0  0  0
  198.8846  175.9672  149.0761 H   0  0  0  0  0  0  0  0  0  0  0  0
  197.4526  177.2941  147.5330 H   0  0  0  0  0  0  0  0  0  0  0  0
  196.4720  179.4375  148.2911 H   0  0  0  0  0  0  0  0  0  0  0  0
  196.9174  180.2895  150.5620 H   0  0  0  0  0  0  0  0  0  0  0  0
  197.4463  181.0127  152.5411 H   0  0  0  0  0  0  0  0  0  0  0  0
  199.2089  181.8471  155.6449 H   0  0  0  0  0  0  0  0  0  0  0  0
  197.6742  182.1604  154.8923 H   0  0  0  0  0  0  0  0  0  0  0  0
  196.9549  181.2388  158.4692 H   0  0  0  0  0  0  0  0  0  0  0  0
  198.1379  182.3749  157.8398 H   0  0  0  0  0  0  0  0  0  0  0  0
  196.2984  183.2354  156.2156 H   0  0  0  0  0  0  0  0  0  0  0  0
  195.2219  182.0452  156.9479 H   0  0  0  0  0  0  0  0  0  0  0  0
  197.5398  184.8635  157.9401 H   0  0  0  0  0  0  0  0  0  0  0  0
  196.9326  186.5514  159.5985 H   0  0  0  0  0  0  0  0  0  0  0  0
  196.3476  187.3949  161.8424 H   0  0  0  0  0  0  0  0  0  0  0  0
  194.9980  188.5164  161.9478 H   0  0  0  0  0  0  0  0  0  0  0  0
  195.8126  188.2738  160.4104 H   0  0  0  0  0  0  0  0  0  0  0  0
  192.9234  185.7668  162.0203 H   0  0  0  0  0  0  0  0  0  0  0  0
  192.5166  186.9093  160.7342 H   0  0  0  0  0  0  0  0  0  0  0  0
  193.1080  187.4816  162.2883 H   0  0  0  0  0  0  0  0  0  0  0  0
  193.1428  184.5105  160.2097 H   0  0  0  0  0  0  0  0  0  0  0  0
  193.7917  182.8287  158.5746 H   0  0  0  0  0  0  0  0  0  0  0  0
  198.1749  180.1000  156.9623 H   0  0  0  0  0  0  0  0  0  0  0  0
  1  2  2  0
  1  6  1  0
  2  3  1  0
  2 32  1  0
  3  4  2  0
  3 33  1  0
  4  5  1  0
  4  7  1  0
  5  6  2  0
  5 34  1  0
  6 35  1  0
  7  8  2  0
  7 17  1  0
  8  9  1  0
  9 10  1  0
  9 16  1  0
 10 11  2  0
 10 15  1  0
 11 12  1  0
 11 36  1  0
 12 13  2  0
 12 37  1  0
 13 14  1  0
 13 38  1  0
 14 15  2  0
 14 39  1  0
 15 40  1  0
 16 17  2  0
 16 41  1  0
 17 18  1  0
 18 19  1  0
 18 42  1  0
 18 43  1  0
 19 20  1  0
 19 31  1  0
 19 58  1  0
 20 21  1  0
 20 44  1  0
 20 45  1  0
 21 22  1  0
 21 46  1  0
 21 47  1  0
 22 23  1  0
 22 30  2  0
 23 24  2  0
 23 48  1  0
 24 25  1  0
 24 49  1  0
 25 26  1  0
 25 29  2  0
 26 27  1  0
 26 28  1  0
 27 50  1  0
 27 51  1  0
 27 52  1  0
 28 53  1  0
 28 54  1  0
 28 55  1  0
 29 30  1  0
 29 56  1  0
 30 57  1  0
M  CHG  1  19   1
M  END
>  <s_epik_cmdline>  (26) 
J2VwaWtfcHl0aG9uJywgJy1waCcsICc3LjAwMDAwMCcsICctcGh0JywgJzIuMDAwMDAwJywgJy1tcycsICcxNicsICctdG4nLCAnOCcsICctbWEnLCAnMjAwJywgJy1pbWFlJywgJzxpbmZpbGUubWFlPicsICctb21hZScsICc8b3V0ZmlsZS5tYWU+Jw==

>  <s_epik_input>  (26) 
W2NIXTFbY0hdbltjSF1bY0hdYzEtYzJubigtYzNbY0hdW2NIXVtjSF1bY0hdW2NIXTMpW2NIXWMyW0NIMl1bTkhdW0NIMl1bQ0gyXWM0W2NIXVtjSF1jKE4oW0NIM10pW0NIM10pW2NIXVtjSF00

>  <s_i_glide_gridfile>  (26) 
ATP-Grid

>  <s_lp_Force_Field>  (26) 
OPLS_2005

>  <s_lp_Variant>  (26) 
m_270004bbb____8292808____7547806-1

>  <s_lp_label>  (26) 
1883_sdstereoexpander_1_neutralizer_1_epik_1_stereoizer_1

>  <s_m_source_file>  (26) 
ATP-VSW-LIGPREP-003-in.maegz

>  <s_sd_BIOSOLVEIT.INFINISEE\_QUERY\_NAME>  (26) 
Ref-Lig

>  <s_sd_BIOSOLVEIT.INFINISEE\_QUERY\_SMILES>  (26) 
S(c1nc2c(cc1C[NH2+]Cc3ccc(cc3)C[NH+](C)C)cccc2)Cc4ccccc4

>  <s_sd_BIOSOLVEIT.INFINISEE\_REACTION\_NAME>  (26) 
m_270004bbb

>  <s_sd_BIOSOLVEIT.INFINISEE\_REAGENT1\_SMILES>  (26) 
[R1*]NCCc1ccc(N(C)C)cc1

>  <s_sd_BIOSOLVEIT.INFINISEE\_REAGENT2\_SMILES>  (26) 
[R1*]CC=1C(=NN(c2ccccc2)C1)c3ccncc3

>  <s_sd_BIOSOLVEIT.INFINISEE\_SPACE>  (26) 
REALSpace_44bn_2023-08

>  <s_vsw_compound_code>  (26) 
60227

>  <s_vsw_variant>  (26) 
60227-1

>  <r_epik_Charging_Adjusted_Penalty>  (26) 
0.00493297282503529

>  <r_epik_Ionization_Penalty>  (26) 
0.012

>  <r_epik_Ionization_Penalty_Charging>  (26) 
0.0048999999999999998

>  <r_epik_Ionization_Penalty_Neutral>  (26) 
0.0071000000000000004

>  <r_epik_State_Penalty>  (26) 
-0

>  <r_i_docking_score>  (26) 
-5.6486937622162303

>  <r_i_glide_ecoul>  (26) 
-8.0705471038818395

>  <r_i_glide_eff_state_penalty>  (26) 
-0

>  <r_i_glide_einternal>  (26) 
1.9958846569061299

>  <r_i_glide_emodel>  (26) 
-67.078515194227805

>  <r_i_glide_energy>  (26) 
-45.515176773071303

>  <r_i_glide_erotb>  (26) 
0.86322678206867198

>  <r_i_glide_esite>  (26) 
-0.098862918546497605

>  <r_i_glide_evdw>  (26) 
-37.444629669189503

>  <r_i_glide_gscore>  (26) 
-5.6486937622162303

>  <r_i_glide_hbond>  (26) 
-0.049003369901414399

>  <r_i_glide_ligand_efficiency>  (26) 
-0.188289792073874

>  <r_i_glide_ligand_efficiency_ln>  (26) 
-1.28344477022363

>  <r_i_glide_ligand_efficiency_sa>  (26) 
-0.58506016180793396

>  <r_i_glide_lipo>  (26) 
-2.0007278670706299

>  <r_i_glide_metal>  (26) 
-0

>  <r_i_glide_rewards>  (26) 
-1.2805128397246199

>  <r_lp_Energy>  (26) 
17.129491999999999

>  <r_lp_tautomer_probability>  (26) 
1

>  <r_qp_ACxDN^.5/SA>  (26) 
0.0074822999999999999

>  <r_qp_CIQPlogS>  (26) 
-5.6289999999999996

>  <r_qp_EA(eV)>  (26) 
0.63500000000000001

>  <r_qp_FISA>  (26) 
27.686

>  <r_qp_FOSA>  (26) 
232.97300000000001

>  <r_qp_IP(eV)>  (26) 
7.774

>  <r_qp_Jm>  (26) 
0.127769022586572

>  <r_qp_PISA>  (26) 
407.58499999999998

>  <r_qp_PSA>  (26) 
39.524999999999999

>  <r_qp_PercentHumanOralAbsorption>  (26) 
100

>  <r_qp_QPPCaco>  (26) 
1349.7560000000001

>  <r_qp_QPPMDCK>  (26) 
756.86800000000005

>  <r_qp_QPlogBB>  (26) 
0.34699999999999998

>  <r_qp_QPlogHERG>  (26) 
-6.5819999999999999

>  <r_qp_QPlogKhsa>  (26) 
0.88

>  <r_qp_QPlogKp>  (26) 
-2.0800000000000001

>  <r_qp_QPlogPC16>  (26) 
13.381

>  <r_qp_QPlogPo/w>  (26) 
4.9980000000000002

>  <r_qp_QPlogPoct>  (26) 
19.061

>  <r_qp_QPlogPw>  (26) 
9.3539999999999992

>  <r_qp_QPlogS>  (26) 
-4.4119999999999999

>  <r_qp_QPpolrz>  (26) 
45.090000000000003

>  <r_qp_SASA>  (26) 
668.24300000000005

>  <r_qp_SAamideO>  (26) 
0

>  <r_qp_SAfluorine>  (26) 
0

>  <r_qp_WPSA>  (26) 
0

>  <r_qp_accptHB>  (26) 
5

>  <r_qp_dip^2/V>  (26) 
0.0067754

>  <r_qp_dipole>  (26) 
2.944

>  <r_qp_donorHB>  (26) 
1

>  <r_qp_glob>  (26) 
0.85293180000000002

>  <r_qp_mol_MW>  (26) 
397.52199999999999

>  <r_qp_volume>  (26) 
1279.4580000000001

>  <r_sd_BIOSOLVEIT.INFINISEE\_FTREES\_SIMILARITY>  (26) 
0.90300000000000002

>  <r_sd_BIOSOLVEIT.LOGP>  (26) 
3.3064

>  <r_sd_BIOSOLVEIT.MOLECULAR\_WEIGHT>  (26) 
398.53100000000001

>  <r_sd_BIOSOLVEIT.TPSA>  (26) 
50.560000000000002

>  <i_epik_Tot_Q>  (26) 
1

>  <i_epik_Tot_abs_Q>  (26) 
1

>  <i_f3d_flags>  (26) 
0

>  <i_i_glide_confnum>  (26) 
9

>  <i_i_glide_lignum>  (26) 
710

>  <i_i_glide_posenum>  (26) 
10

>  <i_i_glide_rotatable_bonds>  (26) 
8

>  <i_lp_mmshare_version>  (26) 
65135

>  <i_m_ct_format>  (26) 
2

>  <i_m_source_file_index>  (26) 
1883

>  <i_qp_#NandO>  (26) 
5

>  <i_qp_#acid>  (26) 
0

>  <i_qp_#amide>  (26) 
0

>  <i_qp_#amidine>  (26) 
0

>  <i_qp_#amine>  (26) 
1

>  <i_qp_#in34>  (26) 
0

>  <i_qp_#in56>  (26) 
23

>  <i_qp_#metab>  (26) 
7

>  <i_qp_#nonHatm>  (26) 
30

>  <i_qp_#noncon>  (26) 
0

>  <i_qp_#ringatoms>  (26) 
23

>  <i_qp_#rotor>  (26) 
6

>  <i_qp_#rtvFG>  (26) 
0

>  <i_qp_#stars>  (26) 
1

>  <i_qp_CNS>  (26) 
1

>  <i_qp_HumanOralAbsorption>  (26) 
3

>  <i_qp_RuleOfFive>  (26) 
0

>  <i_qp_RuleOfThree>  (26) 
1

>  <i_sd_BIOSOLVEIT.INFINISEE\_REAGENT1\_NAME>  (26) 
8292808

>  <i_sd_BIOSOLVEIT.INFINISEE\_REAGENT2\_NAME>  (26) 
7547806

>  <i_sd_BIOSOLVEIT.INFINISEE\_RESULT\_RANK>  (26) 
83205

>  <i_sd_version>  (26) 
0

>  <b_lp_Chiralities_Consistent>  (26) 
1

>  <b_sd_chiral_flag>  (26) 
0

>  <canonical_id>  (26) 
ATP-HTVS-4CFD3E435A48

>  <compound_code>  (26) 
60227

>  <title>  (26) 
m_270004bbb____8292808____7547806

>  <variant>  (26) 
60227-1

>  <source_file>  (26) 
运行/运行/ATP-VSW/ATP-VSW-DOCK_HTVS_1-003_lib/ATP-VSW-DOCK_HTVS_1-003_lib.mae

>  <canonical_smiles>  (26) 
CN(C)c1ccc(CC[NH2+]Cc2cn(-c3ccccc3)nc2-c2ccncc2)cc1

>  <scaffold>  (26) 
c1ccc(CC[NH2+]Cc2cn(-c3ccccc3)nc2-c2ccncc2)cc1

>  <molecular_formula>  (26) 
C25H28N5+

>  <acquisition_id_v2>  (26) 
ATP-ACQ2-0026

>  <selection_arm_v2>  (26) 
local_structure_bridge

>  <priority_v2>  (26) 
P1

$$$$
ATP-ACQ2-0027
     RDKit          3D

 56 59  0  0  0  0  0  0  0  0999 V2000
  204.2565  181.0880  152.7597 O   0  0  0  0  0  0  0  0  0  0  0  0
  203.3862  180.3197  152.0182 C   0  0  0  0  0  0  0  0  0  0  0  0
  202.2030  180.0925  152.7642 C   0  0  0  0  0  0  0  0  0  0  0  0
  201.1951  179.3129  152.1485 C   0  0  0  0  0  0  0  0  0  0  0  0
  201.3733  178.7941  150.8475 C   0  0  0  0  0  0  0  0  0  0  0  0
  202.5669  179.0383  150.1367 C   0  0  0  0  0  0  0  0  0  0  0  0
  203.5881  179.8085  150.7242 C   0  0  0  0  0  0  0  0  0  0  0  0
  202.3860  180.7704  154.0252 C   0  0  0  0  0  0  0  0  0  0  0  0
  203.6369  181.3385  153.9537 C   0  0  0  0  0  0  0  0  0  0  0  0
  201.4499  180.8304  155.2014 C   0  0  1  0  0  0  0  0  0  0  0  0
  200.1896  181.2899  154.6265 N   0  0  0  0  0  0  0  0  0  0  0  0
  199.0668  181.5801  155.4165 C   0  0  0  0  0  0  0  0  0  0  0  0
  199.1705  181.9337  156.7809 C   0  0  0  0  0  0  0  0  0  0  0  0
  198.0167  182.2250  157.5288 C   0  0  0  0  0  0  0  0  0  0  0  0
  196.7518  182.1482  156.9176 C   0  0  0  0  0  0  0  0  0  0  0  0
  195.5197  182.4464  157.7269 N   0  0  0  0  0  0  0  0  0  0  0  0
  195.5505  183.7280  158.4705 C   0  0  0  0  0  0  0  0  0  0  0  0
  194.3442  183.8625  159.3996 C   0  0  0  0  0  0  0  0  0  0  0  0
  194.3983  185.0905  160.0900 O   0  0  0  0  0  0  0  0  0  0  0  0
  196.6285  181.8012  155.5601 C   0  0  0  0  0  0  0  0  0  0  0  0
  197.7913  181.5186  154.8126 C   0  0  0  0  0  0  0  0  0  0  0  0
  201.3114  179.4947  155.8108 C   0  0  0  0  0  0  0  0  0  0  0  0
  201.1212  178.3776  156.2626 C   0  0  0  0  0  0  0  0  0  0  0  0
  200.8185  177.0259  156.7498 C   0  0  0  0  0  0  0  0  0  0  0  0
  200.5828  176.1684  155.6304 O   0  0  0  0  0  0  0  0  0  0  0  0
  201.5074  175.2189  155.2424 C   0  0  0  0  0  0  0  0  0  0  0  0
  201.2889  174.5887  153.9948 C   0  0  0  0  0  0  0  0  0  0  0  0
  202.1617  173.5853  153.5260 C   0  0  0  0  0  0  0  0  0  0  0  0
  203.2715  173.2039  154.3020 C   0  0  0  0  0  0  0  0  0  0  0  0
  203.4953  173.8225  155.5449 C   0  0  0  0  0  0  0  0  0  0  0  0
  202.6216  174.8174  156.0177 C   0  0  0  0  0  0  0  0  0  0  0  0
  200.2804  179.1039  152.6829 H   0  0  0  0  0  0  0  0  0  0  0  0
  200.5917  178.2014  150.3953 H   0  0  0  0  0  0  0  0  0  0  0  0
  202.6965  178.6315  149.1431 H   0  0  0  0  0  0  0  0  0  0  0  0
  204.5105  180.0024  150.1976 H   0  0  0  0  0  0  0  0  0  0  0  0
  204.2092  181.9302  154.6525 H   0  0  0  0  0  0  0  0  0  0  0  0
  201.8157  181.5390  155.9486 H   0  0  0  0  0  0  0  0  0  0  0  0
  200.0177  180.9966  153.6765 H   0  0  0  0  0  0  0  0  0  0  0  0
  200.1286  181.9809  157.2758 H   0  0  0  0  0  0  0  0  0  0  0  0
  198.1166  182.4751  158.5732 H   0  0  0  0  0  0  0  0  0  0  0  0
  194.7207  182.4891  157.1004 H   0  0  0  0  0  0  0  0  0  0  0  0
  196.4521  183.8050  159.0797 H   0  0  0  0  0  0  0  0  0  0  0  0
  195.5898  184.5489  157.7560 H   0  0  0  0  0  0  0  0  0  0  0  0
  193.4061  183.7970  158.8513 H   0  0  0  0  0  0  0  0  0  0  0  0
  194.3676  183.0539  160.1324 H   0  0  0  0  0  0  0  0  0  0  0  0
  194.1205  185.7766  159.4998 H   0  0  0  0  0  0  0  0  0  0  0  0
  195.6567  181.7527  155.0886 H   0  0  0  0  0  0  0  0  0  0  0  0
  197.6945  181.2525  153.7712 H   0  0  0  0  0  0  0  0  0  0  0  0
  201.5989  176.7231  157.4445 H   0  0  0  0  0  0  0  0  0  0  0  0
  199.8901  177.0871  157.3193 H   0  0  0  0  0  0  0  0  0  0  0  0
  200.4374  174.8694  153.3878 H   0  0  0  0  0  0  0  0  0  0  0  0
  201.9823  173.1014  152.5741 H   0  0  0  0  0  0  0  0  0  0  0  0
  203.9424  172.4299  153.9541 H   0  0  0  0  0  0  0  0  0  0  0  0
  204.3345  173.5260  156.1514 H   0  0  0  0  0  0  0  0  0  0  0  0
  202.8371  175.2324  156.9885 H   0  0  0  0  0  0  0  0  0  0  0  0
  195.3529  181.6826  158.3673 H   0  0  0  0  0  0  0  0  0  0  0  0
  1  2  1  0
  1  9  1  0
  2  3  1  0
  2  7  2  0
  3  4  2  0
  3  8  1  0
  4  5  1  0
  4 32  1  0
  5  6  2  0
  5 33  1  0
  6  7  1  0
  6 34  1  0
  7 35  1  0
  8  9  2  0
  8 10  1  0
  9 36  1  0
 10 11  1  0
 10 22  1  0
 10 37  1  1
 11 12  1  0
 11 38  1  0
 12 13  1  0
 12 21  2  0
 13 14  2  0
 13 39  1  0
 14 15  1  0
 14 40  1  0
 15 16  1  0
 15 20  2  0
 16 17  1  0
 16 41  1  0
 16 56  1  0
 17 18  1  0
 17 42  1  0
 17 43  1  0
 18 19  1  0
 18 44  1  0
 18 45  1  0
 19 46  1  0
 20 21  1  0
 20 47  1  0
 21 48  1  0
 22 23  3  0
 23 24  1  0
 24 25  1  0
 24 49  1  0
 24 50  1  0
 25 26  1  0
 26 27  2  0
 26 31  1  0
 27 28  1  0
 27 51  1  0
 28 29  2  0
 28 52  1  0
 29 30  1  0
 29 53  1  0
 30 31  2  0
 30 54  1  0
 31 55  1  0
M  CHG  1  16   1
M  END
>  <s_epik_cmdline>  (27) 
J2VwaWtfcHl0aG9uJywgJy1waCcsICc3LjAwMDAwMCcsICctcGh0JywgJzIuMDAwMDAwJywgJy1tcycsICcxNicsICctdG4nLCAnOCcsICctbWEnLCAnMjAwJywgJy1pbWFlJywgJzxpbmZpbGUubWFlPicsICctb21hZScsICc8b3V0ZmlsZS5tYWU+Jw==

>  <s_epik_input>  (27) 
W09IXVtDSDJdW0NIMl1bTkhdYyhbY0hdW2NIXTEpW2NIXVtjSF1jMVtOSF1bQ0BIXShjKFtjSF1vMiljKGMyMylbY0hdW2NIXVtjSF1bY0hdMylDI0NbQ0gyXU9jNFtjSF1bY0hdW2NIXVtjSF1bY0hdNA==

>  <s_i_glide_gridfile>  (27) 
ATP-Grid

>  <s_lp_Force_Field>  (27) 
OPLS_2005

>  <s_lp_Variant>  (27) 
rxn403____EMOL8314610____EMOL24201912____EMOL530791-4

>  <s_lp_label>  (27) 
2254_sdstereoexpander_2_neutralizer_1_epik_2_stereoizer_1

>  <s_m_source_file>  (27) 
ATP-VSW-LIGPREP-001-in.maegz

>  <s_sd_BIOSOLVEIT.INFINISEE\_QUERY\_NAME>  (27) 
Ref-Lig

>  <s_sd_BIOSOLVEIT.INFINISEE\_QUERY\_SMILES>  (27) 
S(c1nc2c(cc1C[NH2+]Cc3ccc(cc3)C[NH+](C)C)cccc2)Cc4ccccc4

>  <s_sd_BIOSOLVEIT.INFINISEE\_REACTION\_NAME>  (27) 
rxn403

>  <s_sd_BIOSOLVEIT.INFINISEE\_REAGENT1\_NAME>  (27) 
EMOL8314610

>  <s_sd_BIOSOLVEIT.INFINISEE\_REAGENT1\_SMILES>  (27) 
OCCNc1ccc(N)cc1

>  <s_sd_BIOSOLVEIT.INFINISEE\_REAGENT2\_NAME>  (27) 
EMOL24201912

>  <s_sd_BIOSOLVEIT.INFINISEE\_REAGENT2\_SMILES>  (27) 
O=CC=1c2c(OC1)cccc2

>  <s_sd_BIOSOLVEIT.INFINISEE\_REAGENT3\_NAME>  (27) 
EMOL530791

>  <s_sd_BIOSOLVEIT.INFINISEE\_REAGENT3\_SMILES>  (27) 
O(c1ccccc1)CC#C

>  <s_sd_BIOSOLVEIT.INFINISEE\_SPACE>  (27) 
eXplore_7tr_2022-12

>  <s_vsw_compound_code>  (27) 
72097

>  <s_vsw_variant>  (27) 
72097-4

>  <r_epik_Charging_Adjusted_Penalty>  (27) 
1.30690819367976

>  <r_epik_Ionization_Penalty>  (27) 
0.39910000000000001

>  <r_epik_Ionization_Penalty_Charging>  (27) 
0.39910000000000001

>  <r_epik_Ionization_Penalty_Neutral>  (27) 
0

>  <r_epik_State_Penalty>  (27) 
0.90780000000000005

>  <r_i_docking_score>  (27) 
-2.9581124675027102

>  <r_i_glide_ecoul>  (27) 
-9.7911233901977504

>  <r_i_glide_eff_state_penalty>  (27) 
0.90780000000000005

>  <r_i_glide_einternal>  (27) 
1.8565878868103001

>  <r_i_glide_emodel>  (27) 
-48.289972144982301

>  <r_i_glide_energy>  (27) 
-34.874304771423297

>  <r_i_glide_erotb>  (27) 
1.0385198835346101

>  <r_i_glide_esite>  (27) 
-0.079906533659511295

>  <r_i_glide_evdw>  (27) 
-25.0831813812256

>  <r_i_glide_gscore>  (27) 
-3.8659124675027101

>  <r_i_glide_hbond>  (27) 
-0.48829705975320697

>  <r_i_glide_ligand_efficiency>  (27) 
-0.095422982822668007

>  <r_i_glide_ligand_efficiency_ln>  (27) 
-0.66714501668170501

>  <r_i_glide_ligand_efficiency_sa>  (27) 
-0.29975991168948202

>  <r_i_glide_lipo>  (27) 
-1.02354868003366

>  <r_i_glide_metal>  (27) 
-0

>  <r_i_glide_rewards>  (27) 
-0.589852499999999

>  <r_lp_Energy>  (27) 
20.123373000000001

>  <r_lp_tautomer_probability>  (27) 
1

>  <r_qp_ACxDN^.5/SA>  (27) 
0.012371099999999999

>  <r_qp_CIQPlogS>  (27) 
-6.6870000000000003

>  <r_qp_EA(eV)>  (27) 
0.38700000000000001

>  <r_qp_FISA>  (27) 
74.921000000000006

>  <r_qp_FOSA>  (27) 
162.00899999999999

>  <r_qp_IP(eV)>  (27) 
8.0540000000000003

>  <r_qp_Jm>  (27) 
2.3901988993093402

>  <r_qp_PISA>  (27) 
456.11099999999999

>  <r_qp_PSA>  (27) 
63.829999999999998

>  <r_qp_PercentHumanOralAbsorption>  (27) 
100

>  <r_qp_QPPCaco>  (27) 
1929.3889999999999

>  <r_qp_QPPMDCK>  (27) 
1006.596

>  <r_qp_QPlogBB>  (27) 
-0.82799999999999996

>  <r_qp_QPlogHERG>  (27) 
-6.4939999999999998

>  <r_qp_QPlogKhsa>  (27) 
0.56000000000000005

>  <r_qp_QPlogKp>  (27) 
-0.23699999999999999

>  <r_qp_QPlogPC16>  (27) 
14.635999999999999

>  <r_qp_QPlogPo/w>  (27) 
4.9779999999999998

>  <r_qp_QPlogPoct>  (27) 
21.16

>  <r_qp_QPlogPw>  (27) 
11.842000000000001

>  <r_qp_QPlogS>  (27) 
-5

>  <r_qp_QPpolrz>  (27) 
42.844000000000001

>  <r_qp_SASA>  (27) 
693.04200000000003

>  <r_qp_SAamideO>  (27) 
0

>  <r_qp_SAfluorine>  (27) 
0

>  <r_qp_WPSA>  (27) 
0

>  <r_qp_accptHB>  (27) 
4.9500000000000002

>  <r_qp_dip^2/V>  (27) 
0.0034643999999999999

>  <r_qp_dipole>  (27) 
2.1160000000000001

>  <r_qp_donorHB>  (27) 
3

>  <r_qp_glob>  (27) 
0.82777469999999997

>  <r_qp_mol_MW>  (27) 
412.48700000000002

>  <r_qp_volume>  (27) 
1291.991

>  <r_sd_BIOSOLVEIT.INFINISEE\_FTREES\_SIMILARITY>  (27) 
0.92600000000000005

>  <r_sd_BIOSOLVEIT.LOGP>  (27) 
5.0726000000000004

>  <r_sd_BIOSOLVEIT.MOLECULAR\_WEIGHT>  (27) 
412.48700000000002

>  <r_sd_BIOSOLVEIT.TPSA>  (27) 
66.659999999999997

>  <i_epik_Tot_Q>  (27) 
1

>  <i_epik_Tot_abs_Q>  (27) 
1

>  <i_f3d_flags>  (27) 
0

>  <i_i_glide_confnum>  (27) 
1

>  <i_i_glide_lignum>  (27) 
777

>  <i_i_glide_posenum>  (27) 
7

>  <i_i_glide_rotatable_bonds>  (27) 
11

>  <i_lp_mmshare_version>  (27) 
65135

>  <i_m_ct_format>  (27) 
2

>  <i_m_source_file_index>  (27) 
2254

>  <i_qp_#NandO>  (27) 
5

>  <i_qp_#acid>  (27) 
0

>  <i_qp_#amide>  (27) 
0

>  <i_qp_#amidine>  (27) 
0

>  <i_qp_#amine>  (27) 
0

>  <i_qp_#in34>  (27) 
0

>  <i_qp_#in56>  (27) 
21

>  <i_qp_#metab>  (27) 
9

>  <i_qp_#nonHatm>  (27) 
31

>  <i_qp_#noncon>  (27) 
0

>  <i_qp_#ringatoms>  (27) 
21

>  <i_qp_#rotor>  (27) 
11

>  <i_qp_#rtvFG>  (27) 
0

>  <i_qp_#stars>  (27) 
2

>  <i_qp_CNS>  (27) 
-1

>  <i_qp_HumanOralAbsorption>  (27) 
3

>  <i_qp_RuleOfFive>  (27) 
0

>  <i_qp_RuleOfThree>  (27) 
1

>  <i_sd_BIOSOLVEIT.INFINISEE\_RESULT\_RANK>  (27) 
7948

>  <i_sd_version>  (27) 
0

>  <b_lp_Chiralities_Consistent>  (27) 
1

>  <b_sd_chiral_flag>  (27) 
0

>  <canonical_id>  (27) 
ATP-HTVS-EE8A818A3017

>  <compound_code>  (27) 
72097

>  <title>  (27) 
rxn403____EMOL8314610____EMOL24201912____EMOL530791

>  <variant>  (27) 
72097-4

>  <source_file>  (27) 
运行/运行/ATP-VSW/ATP-VSW-DOCK_HTVS_1-001_lib/ATP-VSW-DOCK_HTVS_1-001_lib

>  <canonical_smiles>  (27) 
OCC[NH2+]c1ccc(N[C@@H](C#CCOc2ccccc2)c2coc3ccccc23)cc1

>  <scaffold>  (27) 
C(#CC(Nc1ccccc1)c1coc2ccccc12)COc1ccccc1

>  <molecular_formula>  (27) 
C26H25N2O3+

>  <acquisition_id_v2>  (27) 
ATP-ACQ2-0027

>  <selection_arm_v2>  (27) 
scaffold_score_exploration

>  <priority_v2>  (27) 
P1

$$$$
ATP-ACQ2-0028
     RDKit          3D

 56 58  0  0  0  0  0  0  0  0999 V2000
  196.9532  183.4024  156.0788 O   0  0  0  0  0  0  0  0  0  0  0  0
  196.5557  182.3489  156.5650 C   0  0  0  0  0  0  0  0  0  0  0  0
  196.0952  182.2522  157.8283 N   0  0  0  0  0  0  0  0  0  0  0  0
  195.8229  183.3578  158.6756 C   0  0  0  0  0  0  0  0  0  0  0  0
  196.8341  184.1975  159.2284 C   0  0  0  0  0  0  0  0  0  0  0  0
  196.4213  185.2426  160.0925 C   0  0  0  0  0  0  0  0  0  0  0  0
  195.0519  185.4022  160.3785 C   0  0  0  0  0  0  0  0  0  0  0  0
  194.6320  186.3930  161.2544 O   0  0  0  0  0  0  0  0  0  0  0  0
  193.2165  186.5330  161.4702 C   0  0  0  0  0  0  0  0  0  0  0  0
  192.8748  187.5246  162.5568 C   0  0  0  0  0  0  0  0  0  0  0  0
  191.9527  187.1769  163.5690 C   0  0  0  0  0  0  0  0  0  0  0  0
  191.6130  188.1131  164.5645 C   0  0  0  0  0  0  0  0  0  0  0  0
  192.1926  189.3965  164.5492 C   0  0  0  0  0  0  0  0  0  0  0  0
  193.0970  189.7534  163.5299 C   0  0  0  0  0  0  0  0  0  0  0  0
  193.4321  188.8183  162.5324 C   0  0  0  0  0  0  0  0  0  0  0  0
  194.1071  184.5884  159.8616 N   0  0  0  0  0  0  0  0  0  0  0  0
  194.4850  183.6019  159.0366 C   0  0  0  0  0  0  0  0  0  0  0  0
  198.3153  183.9857  158.9547 C   0  0  0  0  0  0  0  0  0  0  0  0
  196.5322  181.1667  155.9501 N   0  0  0  0  0  0  0  0  0  0  0  0
  197.0903  180.8797  154.6465 C   0  0  0  0  0  0  0  0  0  0  0  0
  197.8108  179.6695  154.4635 C   0  0  0  0  0  0  0  0  0  0  0  0
  198.3082  179.3793  153.1651 C   0  0  0  0  0  0  0  0  0  0  0  0
  198.1324  180.2768  152.0967 C   0  0  0  0  0  0  0  0  0  0  0  0
  197.4750  181.4999  152.3183 C   0  0  0  0  0  0  0  0  0  0  0  0
  196.9456  181.7905  153.5939 C   0  0  0  0  0  0  0  0  0  0  0  0
  198.0844  178.6925  155.5965 C   0  0  0  0  0  0  0  0  0  0  0  0
  199.1928  179.0742  156.5357 N   0  0  0  0  0  0  0  0  0  0  0  0
  199.2476  180.4750  156.9962 C   0  0  0  0  0  0  0  0  0  0  0  0
  200.5300  178.6455  156.0597 C   0  0  0  0  0  0  0  0  0  0  0  0
  195.7202  181.3588  158.1084 H   0  0  0  0  0  0  0  0  0  0  0  0
  197.1395  185.9099  160.5582 H   0  0  0  0  0  0  0  0  0  0  0  0
  192.7381  186.8513  160.5438 H   0  0  0  0  0  0  0  0  0  0  0  0
  192.7673  185.5874  161.7636 H   0  0  0  0  0  0  0  0  0  0  0  0
  191.5023  186.1937  163.5903 H   0  0  0  0  0  0  0  0  0  0  0  0
  190.9161  187.8435  165.3432 H   0  0  0  0  0  0  0  0  0  0  0  0
  191.9394  190.1110  165.3190 H   0  0  0  0  0  0  0  0  0  0  0  0
  193.5349  190.7393  163.5059 H   0  0  0  0  0  0  0  0  0  0  0  0
  194.1128  189.0864  161.7369 H   0  0  0  0  0  0  0  0  0  0  0  0
  193.6930  182.9594  158.6716 H   0  0  0  0  0  0  0  0  0  0  0  0
  198.9372  184.7095  159.4978 H   0  0  0  0  0  0  0  0  0  0  0  0
  198.5201  184.1029  157.8916 H   0  0  0  0  0  0  0  0  0  0  0  0
  198.6002  182.9747  159.2613 H   0  0  0  0  0  0  0  0  0  0  0  0
  196.2369  180.3705  156.5319 H   0  0  0  0  0  0  0  0  0  0  0  0
  198.8295  178.4430  152.9940 H   0  0  0  0  0  0  0  0  0  0  0  0
  198.5033  180.0207  151.1162 H   0  0  0  0  0  0  0  0  0  0  0  0
  197.3594  182.2102  151.5113 H   0  0  0  0  0  0  0  0  0  0  0  0
  196.4589  182.7554  153.7340 H   0  0  0  0  0  0  0  0  0  0  0  0
  197.1524  178.5409  156.1476 H   0  0  0  0  0  0  0  0  0  0  0  0
  198.3359  177.7226  155.1876 H   0  0  0  0  0  0  0  0  0  0  0  0
  199.3073  181.1669  156.1418 H   0  0  0  0  0  0  0  0  0  0  0  0
  200.1175  180.7068  157.6140 H   0  0  0  0  0  0  0  0  0  0  0  0
  198.3209  180.6560  157.5380 H   0  0  0  0  0  0  0  0  0  0  0  0
  200.7721  179.1553  155.1274 H   0  0  0  0  0  0  0  0  0  0  0  0
  200.5845  177.5657  155.9073 H   0  0  0  0  0  0  0  0  0  0  0  0
  201.2914  178.9219  156.7973 H   0  0  0  0  0  0  0  0  0  0  0  0
  198.9563  178.5252  157.3465 H   0  0  0  0  0  0  0  0  0  0  0  0
  1  2  2  0
  2  3  1  0
  2 19  1  0
  3  4  1  0
  3 30  1  0
  4  5  2  0
  4 17  1  0
  5  6  1  0
  5 18  1  0
  6  7  2  0
  6 31  1  0
  7  8  1  0
  7 16  1  0
  8  9  1  0
  9 10  1  0
  9 32  1  0
  9 33  1  0
 10 11  2  0
 10 15  1  0
 11 12  1  0
 11 34  1  0
 12 13  2  0
 12 35  1  0
 13 14  1  0
 13 36  1  0
 14 15  2  0
 14 37  1  0
 15 38  1  0
 16 17  2  0
 17 39  1  0
 18 40  1  0
 18 41  1  0
 18 42  1  0
 19 20  1  0
 19 43  1  0
 20 21  1  0
 20 25  2  0
 21 22  2  0
 21 26  1  0
 22 23  1  0
 22 44  1  0
 23 24  2  0
 23 45  1  0
 24 25  1  0
 24 46  1  0
 25 47  1  0
 26 27  1  0
 26 48  1  0
 26 49  1  0
 27 28  1  0
 27 29  1  0
 27 56  1  0
 28 50  1  0
 28 51  1  0
 28 52  1  0
 29 53  1  0
 29 54  1  0
 29 55  1  0
M  CHG  1  27   1
M  END
>  <s_epik_cmdline>  (28) 
J2VwaWtfcHl0aG9uJywgJy1waCcsICc3LjAwMDAwMCcsICctcGh0JywgJzIuMDAwMDAwJywgJy1tcycsICcxNicsICctdG4nLCAnOCcsICctbWEnLCAnMjAwJywgJy1pbWFlJywgJzxpbmZpbGUubWFlPicsICctb21hZScsICc8b3V0ZmlsZS5tYWU+Jw==

>  <s_epik_input>  (28) 
W2NIXTFbY0hdW2NIXVtjSF1jKFtDSDJdTihbQ0gzXSlbQ0gzXSljMVtOSF1DKD1PKVtOSF1jMmMoW0NIM10pW2NIXWMobltjSF0yKU9bQ0gyXWMzW2NIXVtjSF1bY0hdW2NIXVtjSF0z

>  <s_i_glide_gridfile>  (28) 
ATP-Grid

>  <s_lp_Force_Field>  (28) 
OPLS_2005

>  <s_lp_Variant>  (28) 
rxn203____EMOL44691345____EMOL42077534-1

>  <s_lp_label>  (28) 
2757_sdstereoexpander_1_neutralizer_1_epik_1_stereoizer_1

>  <s_m_source_file>  (28) 
ATP-VSW-LIGPREP-003-in.maegz

>  <s_sd_BIOSOLVEIT.INFINISEE\_QUERY\_NAME>  (28) 
Ref-Lig

>  <s_sd_BIOSOLVEIT.INFINISEE\_QUERY\_SMILES>  (28) 
S(c1nc2c(cc1C[NH2+]Cc3ccc(cc3)C[NH+](C)C)cccc2)Cc4ccccc4

>  <s_sd_BIOSOLVEIT.INFINISEE\_REACTION\_NAME>  (28) 
rxn203

>  <s_sd_BIOSOLVEIT.INFINISEE\_REAGENT1\_NAME>  (28) 
EMOL44691345

>  <s_sd_BIOSOLVEIT.INFINISEE\_REAGENT1\_SMILES>  (28) 
N(Cc1c(N)cccc1)(C)C

>  <s_sd_BIOSOLVEIT.INFINISEE\_REAGENT2\_NAME>  (28) 
EMOL42077534

>  <s_sd_BIOSOLVEIT.INFINISEE\_REAGENT2\_SMILES>  (28) 
O(c1ncc(N)c(c1)C)Cc2ccccc2

>  <s_sd_BIOSOLVEIT.INFINISEE\_SPACE>  (28) 
eXplore_7tr_2022-12

>  <s_vsw_compound_code>  (28) 
88195

>  <s_vsw_variant>  (28) 
88195-1

>  <r_epik_Charging_Adjusted_Penalty>  (28) 
0.080819884641968098

>  <r_epik_Ionization_Penalty>  (28) 
0.040599999999999997

>  <r_epik_Ionization_Penalty_Charging>  (28) 
0.040399999999999998

>  <r_epik_Ionization_Penalty_Neutral>  (28) 
0.00020000000000000001

>  <r_epik_State_Penalty>  (28) 
0.040399999999999998

>  <r_i_docking_score>  (28) 
-6.1984132273742798

>  <r_i_glide_ecoul>  (28) 
-13.7553758621216

>  <r_i_glide_eff_state_penalty>  (28) 
0.040399999999999998

>  <r_i_glide_einternal>  (28) 
7.7063498497009304

>  <r_i_glide_emodel>  (28) 
-76.973752447875796

>  <r_i_glide_energy>  (28) 
-52.315617561340297

>  <r_i_glide_erotb>  (28) 
1.01865829184723

>  <r_i_glide_esite>  (28) 
-0.33831834188579002

>  <r_i_glide_evdw>  (28) 
-38.5602416992188

>  <r_i_glide_gscore>  (28) 
-6.2388132273742798

>  <r_i_glide_hbond>  (28) 
-0.38456488748655898

>  <r_i_glide_ligand_efficiency>  (28) 
-0.21373838715083701

>  <r_i_glide_ligand_efficiency_ln>  (28) 
-1.4192794508709701

>  <r_i_glide_ligand_efficiency_sa>  (28) 
-0.65667204240140298

>  <r_i_glide_lipo>  (28) 
-1.8034021892063501

>  <r_i_glide_metal>  (28) 
-0

>  <r_i_glide_rewards>  (28) 
-0.73986763636363595

>  <r_lp_Energy>  (28) 
28.588678999999999

>  <r_lp_tautomer_probability>  (28) 
1

>  <r_qp_ACxDN^.5/SA>  (28) 
0.0092624000000000005

>  <r_qp_CIQPlogS>  (28) 
-4.468

>  <r_qp_EA(eV)>  (28) 
0.098000000000000004

>  <r_qp_FISA>  (28) 
60.168999999999997

>  <r_qp_FOSA>  (28) 
282.86500000000001

>  <r_qp_IP(eV)>  (28) 
8.5809999999999995

>  <r_qp_Jm>  (28) 
0.0079351193770489797

>  <r_qp_PISA>  (28) 
420.37900000000002

>  <r_qp_PSA>  (28) 
68.480000000000004

>  <r_qp_PercentHumanOralAbsorption>  (28) 
100

>  <r_qp_QPPCaco>  (28) 
456.83699999999999

>  <r_qp_QPPMDCK>  (28) 
351.613

>  <r_qp_QPlogBB>  (28) 
-0.13500000000000001

>  <r_qp_QPlogHERG>  (28) 
-6.5990000000000002

>  <r_qp_QPlogKhsa>  (28) 
0.58899999999999997

>  <r_qp_QPlogKp>  (28) 
-2.5379999999999998

>  <r_qp_QPlogPC16>  (28) 
14.694000000000001

>  <r_qp_QPlogPo/w>  (28) 
4.3479999999999999

>  <r_qp_QPlogPoct>  (28) 
21.858000000000001

>  <r_qp_QPlogPw>  (28) 
12.646000000000001

>  <r_qp_QPlogS>  (28) 
-5.1539999999999999

>  <r_qp_QPpolrz>  (28) 
47.064999999999998

>  <r_qp_SASA>  (28) 
763.41300000000001

>  <r_qp_SAamideO>  (28) 
20.408999999999999

>  <r_qp_SAfluorine>  (28) 
0

>  <r_qp_WPSA>  (28) 
0

>  <r_qp_accptHB>  (28) 
5

>  <r_qp_dip^2/V>  (28) 
0.068097299999999999

>  <r_qp_dipole>  (28) 
9.5589999999999993

>  <r_qp_donorHB>  (28) 
2

>  <r_qp_glob>  (28) 
0.77066389999999996

>  <r_qp_mol_MW>  (28) 
390.48399999999998

>  <r_qp_volume>  (28) 
1341.8050000000001

>  <r_sd_BIOSOLVEIT.INFINISEE\_FTREES\_SIMILARITY>  (28) 
0.90700000000000003

>  <r_sd_BIOSOLVEIT.LOGP>  (28) 
3.25752

>  <r_sd_BIOSOLVEIT.MOLECULAR\_WEIGHT>  (28) 
391.49200000000002

>  <r_sd_BIOSOLVEIT.TPSA>  (28) 
67.689999999999998

>  <i_epik_Tot_Q>  (28) 
1

>  <i_epik_Tot_abs_Q>  (28) 
1

>  <i_f3d_flags>  (28) 
0

>  <i_i_glide_confnum>  (28) 
5

>  <i_i_glide_lignum>  (28) 
1313

>  <i_i_glide_posenum>  (28) 
12

>  <i_i_glide_rotatable_bonds>  (28) 
9

>  <i_lp_mmshare_version>  (28) 
65135

>  <i_m_ct_format>  (28) 
2

>  <i_m_source_file_index>  (28) 
2757

>  <i_qp_#NandO>  (28) 
6

>  <i_qp_#acid>  (28) 
0

>  <i_qp_#amide>  (28) 
1

>  <i_qp_#amidine>  (28) 
0

>  <i_qp_#amine>  (28) 
1

>  <i_qp_#in34>  (28) 
0

>  <i_qp_#in56>  (28) 
18

>  <i_qp_#metab>  (28) 
7

>  <i_qp_#nonHatm>  (28) 
29

>  <i_qp_#noncon>  (28) 
0

>  <i_qp_#ringatoms>  (28) 
18

>  <i_qp_#rotor>  (28) 
7

>  <i_qp_#rtvFG>  (28) 
0

>  <i_qp_#stars>  (28) 
0

>  <i_qp_CNS>  (28) 
1

>  <i_qp_HumanOralAbsorption>  (28) 
3

>  <i_qp_RuleOfFive>  (28) 
0

>  <i_qp_RuleOfThree>  (28) 
1

>  <i_sd_BIOSOLVEIT.INFINISEE\_RESULT\_RANK>  (28) 
58966

>  <i_sd_version>  (28) 
0

>  <b_lp_Chiralities_Consistent>  (28) 
1

>  <b_sd_chiral_flag>  (28) 
0

>  <canonical_id>  (28) 
ATP-HTVS-E71202E475AE

>  <compound_code>  (28) 
88195

>  <title>  (28) 
rxn203____EMOL44691345____EMOL42077534

>  <variant>  (28) 
88195-1

>  <source_file>  (28) 
运行/运行/ATP-VSW/ATP-VSW-DOCK_HTVS_1-003_lib/ATP-VSW-DOCK_HTVS_1-003_lib.mae

>  <canonical_smiles>  (28) 
Cc1cc(OCc2ccccc2)ncc1NC(=O)Nc1ccccc1C[NH+](C)C

>  <scaffold>  (28) 
O=C(Nc1ccccc1)Nc1ccc(OCc2ccccc2)nc1

>  <molecular_formula>  (28) 
C23H27N4O2+

>  <acquisition_id_v2>  (28) 
ATP-ACQ2-0028

>  <selection_arm_v2>  (28) 
exploitation

>  <priority_v2>  (28) 
P1

$$$$
ATP-ACQ2-0029
     RDKit          3D

 62 65  0  0  0  0  0  0  0  0999 V2000
  196.5153  181.7888  152.2404 O   0  0  0  0  0  0  0  0  0  0  0  0
  196.7436  180.6841  152.7972 C   0  0  0  0  0  0  0  0  0  0  0  0
  196.2983  179.5840  152.4247 O   0  0  0  0  0  0  0  0  0  0  0  0
  197.6472  180.7132  154.0417 C   0  0  1  0  0  0  0  0  0  0  0  0
  196.7981  180.5178  155.3300 C   0  0  0  0  0  0  0  0  0  0  0  0
  196.3129  181.7997  155.9058 N   0  0  0  0  0  0  0  0  0  0  0  0
  196.1525  181.7751  157.3838 C   0  0  0  0  0  0  0  0  0  0  0  0
  196.4150  183.1293  158.0127 C   0  0  0  0  0  0  0  0  0  0  0  0
  197.6517  183.7658  157.7997 C   0  0  0  0  0  0  0  0  0  0  0  0
  197.9156  185.0430  158.3628 C   0  0  0  0  0  0  0  0  0  0  0  0
  199.0723  185.7575  158.1142 O   0  0  0  0  0  0  0  0  0  0  0  0
  200.1973  185.0741  157.5615 C   0  0  0  0  0  0  0  0  0  0  0  0
  200.8499  184.1092  158.5582 C   0  0  0  0  0  0  0  0  0  0  0  0
  201.2566  182.8318  158.1076 C   0  0  0  0  0  0  0  0  0  0  0  0
  201.9561  181.9332  158.9702 C   0  0  0  0  0  0  0  0  0  0  0  0
  202.1743  182.3318  160.2931 C   0  0  0  0  0  0  0  0  0  0  0  0
  201.7486  183.5995  160.7857 C   0  0  0  0  0  0  0  0  0  0  0  0
  201.0959  184.4995  159.9083 C   0  0  0  0  0  0  0  0  0  0  0  0
  196.9382  185.6386  159.1969 C   0  0  0  0  0  0  0  0  0  0  0  0
  195.7108  184.9766  159.4321 C   0  0  0  0  0  0  0  0  0  0  0  0
  195.4424  183.7327  158.8355 C   0  0  0  0  0  0  0  0  0  0  0  0
  194.7446  185.5754  160.2603 C   0  0  0  0  0  0  0  0  0  0  0  0
  194.9887  186.8258  160.8546 C   0  0  0  0  0  0  0  0  0  0  0  0
  196.2039  187.4909  160.6158 C   0  0  0  0  0  0  0  0  0  0  0  0
  197.1782  186.8986  159.7902 C   0  0  0  0  0  0  0  0  0  0  0  0
  198.7380  179.6265  153.8692 C   0  0  0  0  0  0  0  0  0  0  0  0
  199.7257  179.5529  155.0227 C   0  0  0  0  0  0  0  0  0  0  0  0
  200.8749  180.3656  155.0247 C   0  0  0  0  0  0  0  0  0  0  0  0
  201.8360  180.2552  156.0492 C   0  0  0  0  0  0  0  0  0  0  0  0
  201.5951  179.3226  157.0989 C   0  0  0  0  0  0  0  0  0  0  0  0
  200.4141  178.5751  157.1377 C   0  0  0  0  0  0  0  0  0  0  0  0
  199.4877  178.6544  156.0783 C   0  0  0  0  0  0  0  0  0  0  0  0
  203.0794  181.1414  156.0089 C   0  0  0  0  0  0  0  0  0  0  0  0
  197.0107  182.4950  155.6859 H   0  0  0  0  0  0  0  0  0  0  0  0
  198.1643  181.6759  154.0764 H   0  0  0  0  0  0  0  0  0  0  0  0
  196.0123  179.8023  155.1519 H   0  0  0  0  0  0  0  0  0  0  0  0
  197.3739  180.0138  156.0974 H   0  0  0  0  0  0  0  0  0  0  0  0
  195.1513  181.4134  157.6062 H   0  0  0  0  0  0  0  0  0  0  0  0
  196.8546  181.0914  157.8673 H   0  0  0  0  0  0  0  0  0  0  0  0
  198.3801  183.2556  157.1804 H   0  0  0  0  0  0  0  0  0  0  0  0
  199.9182  184.5924  156.6140 H   0  0  0  0  0  0  0  0  0  0  0  0
  200.9390  185.8235  157.2595 H   0  0  0  0  0  0  0  0  0  0  0  0
  201.0170  182.5762  157.0883 H   0  0  0  0  0  0  0  0  0  0  0  0
  202.3289  180.9644  158.6675 H   0  0  0  0  0  0  0  0  0  0  0  0
  202.6719  181.6358  160.9466 H   0  0  0  0  0  0  0  0  0  0  0  0
  201.9435  183.8643  161.8114 H   0  0  0  0  0  0  0  0  0  0  0  0
  200.7844  185.4930  160.2573 H   0  0  0  0  0  0  0  0  0  0  0  0
  194.5031  183.2300  159.0159 H   0  0  0  0  0  0  0  0  0  0  0  0
  193.7978  185.0809  160.4226 H   0  0  0  0  0  0  0  0  0  0  0  0
  194.2346  187.2832  161.4783 H   0  0  0  0  0  0  0  0  0  0  0  0
  196.3917  188.4536  161.0726 H   0  0  0  0  0  0  0  0  0  0  0  0
  198.1100  187.4256  159.6362 H   0  0  0  0  0  0  0  0  0  0  0  0
  198.2875  178.6415  153.7594 H   0  0  0  0  0  0  0  0  0  0  0  0
  199.3012  179.8062  152.9483 H   0  0  0  0  0  0  0  0  0  0  0  0
  201.0164  181.0923  154.2310 H   0  0  0  0  0  0  0  0  0  0  0  0
  202.3236  179.1970  157.9037 H   0  0  0  0  0  0  0  0  0  0  0  0
  200.1663  177.9429  157.9814 H   0  0  0  0  0  0  0  0  0  0  0  0
  198.5850  178.0499  156.0967 H   0  0  0  0  0  0  0  0  0  0  0  0
  203.5848  181.1961  156.9762 H   0  0  0  0  0  0  0  0  0  0  0  0
  202.7942  182.1647  155.7431 H   0  0  0  0  0  0  0  0  0  0  0  0
  203.7892  180.7981  155.2552 H   0  0  0  0  0  0  0  0  0  0  0  0
  195.4315  182.1031  155.4906 H   0  0  0  0  0  0  0  0  0  0  0  0
  1  2  1  0
  2  3  2  0
  2  4  1  0
  4  5  1  0
  4 26  1  0
  4 35  1  1
  5  6  1  0
  5 36  1  0
  5 37  1  0
  6  7  1  0
  6 34  1  0
  6 62  1  0
  7  8  1  0
  7 38  1  0
  7 39  1  0
  8  9  1  0
  8 21  2  0
  9 10  2  0
  9 40  1  0
 10 11  1  0
 10 19  1  0
 11 12  1  0
 12 13  1  0
 12 41  1  0
 12 42  1  0
 13 14  2  0
 13 18  1  0
 14 15  1  0
 14 43  1  0
 15 16  2  0
 15 44  1  0
 16 17  1  0
 16 45  1  0
 17 18  2  0
 17 46  1  0
 18 47  1  0
 19 20  1  0
 19 25  2  0
 20 21  1  0
 20 22  2  0
 21 48  1  0
 22 23  1  0
 22 49  1  0
 23 24  2  0
 23 50  1  0
 24 25  1  0
 24 51  1  0
 25 52  1  0
 26 27  1  0
 26 53  1  0
 26 54  1  0
 27 28  1  0
 27 32  2  0
 28 29  2  0
 28 55  1  0
 29 30  1  0
 29 33  1  0
 30 31  2  0
 30 56  1  0
 31 32  1  0
 31 57  1  0
 32 58  1  0
 33 59  1  0
 33 60  1  0
 33 61  1  0
M  CHG  2   1  -1   6   1
M  END
>  <s_epik_cmdline>  (29) 
J2VwaWtfcHl0aG9uJywgJy1waCcsICc3LjAwMDAwMCcsICctcGh0JywgJzIuMDAwMDAwJywgJy1tcycsICcxNicsICctdG4nLCAnOCcsICctbWEnLCAnMjAwJywgJy1pbWFlJywgJzxpbmZpbGUubWFlPicsICctb21hZScsICc8b3V0ZmlsZS5tYWU+Jw==

>  <s_epik_input>  (29) 
W2NIXTFbY0hdW2NIXWMoW0NIM10pW2NIXWMxW0NIMl1bQ0BASF0oQyg9TylbT0hdKVtDSDJdW05IXVtDSDJdYyhbY0hdYyhjMjMpW2NIXVtjSF1bY0hdW2NIXTMpW2NIXWMyT1tDSDJdYzRbY0hdW2NIXVtjSF1bY0hdW2NIXTQ=

>  <s_i_glide_gridfile>  (29) 
ATP-Grid

>  <s_lp_Force_Field>  (29) 
OPLS_2005

>  <s_lp_Variant>  (29) 
m_271304bba____9304164____13059962-1

>  <s_lp_label>  (29) 
1580_sdstereoexpander_1_neutralizer_1_epik_1_stereoizer_1

>  <s_m_source_file>  (29) 
ATP-VSW-LIGPREP-003-in.maegz

>  <s_sd_BIOSOLVEIT.INFINISEE\_QUERY\_NAME>  (29) 
Ref-Lig

>  <s_sd_BIOSOLVEIT.INFINISEE\_QUERY\_SMILES>  (29) 
S(c1nc2c(cc1C[NH2+]Cc3ccc(cc3)C[NH+](C)C)cccc2)Cc4ccccc4

>  <s_sd_BIOSOLVEIT.INFINISEE\_REACTION\_NAME>  (29) 
m_271304bba

>  <s_sd_BIOSOLVEIT.INFINISEE\_REAGENT1\_SMILES>  (29) 
[R1*]NCC(C(=O)O)Cc1cc(ccc1)C

>  <s_sd_BIOSOLVEIT.INFINISEE\_REAGENT2\_SMILES>  (29) 
[R1*]Cc1cc(OCc2ccccc2)c3c(c1)cccc3

>  <s_sd_BIOSOLVEIT.INFINISEE\_SPACE>  (29) 
REALSpace_44bn_2023-08

>  <s_vsw_compound_code>  (29) 
50531

>  <s_vsw_variant>  (29) 
50531-1

>  <r_epik_Charging_Adjusted_Penalty>  (29) 
0.012419669830514001

>  <r_epik_Ionization_Penalty>  (29) 
0.0064000000000000003

>  <r_epik_Ionization_Penalty_Charging>  (29) 
0.0064000000000000003

>  <r_epik_Ionization_Penalty_Neutral>  (29) 
0

>  <r_epik_State_Penalty>  (29) 
0.0060000000000000001

>  <r_i_docking_score>  (29) 
-4.2509430529547396

>  <r_i_glide_ecoul>  (29) 
-5.3703737258911097

>  <r_i_glide_eff_state_penalty>  (29) 
0.0060000000000000001

>  <r_i_glide_einternal>  (29) 
10.563289642334

>  <r_i_glide_emodel>  (29) 
-49.5067934936272

>  <r_i_glide_energy>  (29) 
-39.547287940978997

>  <r_i_glide_erotb>  (29) 
0.92977261941215605

>  <r_i_glide_esite>  (29) 
-0.079872894888451701

>  <r_i_glide_evdw>  (29) 
-34.176914215087898

>  <r_i_glide_gscore>  (29) 
-4.2569430529547398

>  <r_i_glide_hbond>  (29) 
-0.20000000000000001

>  <r_i_glide_ligand_efficiency>  (29) 
-0.128816456150144

>  <r_i_glide_ligand_efficiency_ln>  (29) 
-0.94538772477196598

>  <r_i_glide_ligand_efficiency_sa>  (29) 
-0.41318320488842097

>  <r_i_glide_lipo>  (29) 
-1.89145678115504

>  <r_i_glide_metal>  (29) 
-0

>  <r_i_glide_rewards>  (29) 
-0.50098422668533704

>  <r_lp_Energy>  (29) 
14.742300999999999

>  <r_qp_ACxDN^.5/SA>  (29) 
0.0043309999999999998

>  <r_qp_CIQPlogS>  (29) 
-7.1459999999999999

>  <r_qp_EA(eV)>  (29) 
0.52400000000000002

>  <r_qp_FISA>  (29) 
99.593000000000004

>  <r_qp_FOSA>  (29) 
146.589

>  <r_qp_IP(eV)>  (29) 
8.2119999999999997

>  <r_qp_Jm>  (29) 
0.000238546542030769

>  <r_qp_PISA>  (29) 
504.22800000000001

>  <r_qp_PSA>  (29) 
66.114000000000004

>  <r_qp_PercentHumanOralAbsorption>  (29) 
88.472999999999999

>  <r_qp_QPPCaco>  (29) 
71.114999999999995

>  <r_qp_QPPMDCK>  (29) 
39.973999999999997

>  <r_qp_QPlogBB>  (29) 
-0.64800000000000002

>  <r_qp_QPlogHERG>  (29) 
-5.8970000000000002

>  <r_qp_QPlogKhsa>  (29) 
1.272

>  <r_qp_QPlogKp>  (29) 
-2.681

>  <r_qp_QPlogPC16>  (29) 
15.835000000000001

>  <r_qp_QPlogPo/w>  (29) 
4.8470000000000004

>  <r_qp_QPlogPoct>  (29) 
19.920999999999999

>  <r_qp_QPlogPw>  (29) 
8.0920000000000005

>  <r_qp_QPlogS>  (29) 
-6.5839999999999996

>  <r_qp_QPpolrz>  (29) 
48.838999999999999

>  <r_qp_SASA>  (29) 
750.40999999999997

>  <r_qp_SAamideO>  (29) 
0

>  <r_qp_SAfluorine>  (29) 
0

>  <r_qp_WPSA>  (29) 
0

>  <r_qp_accptHB>  (29) 
3.25

>  <r_qp_dip^2/V>  (29) 
0.023463600000000001

>  <r_qp_dipole>  (29) 
5.7610000000000001

>  <r_qp_donorHB>  (29) 
1

>  <r_qp_glob>  (29) 
0.811998

>  <r_qp_mol_MW>  (29) 
439.553

>  <r_qp_volume>  (29) 
1414.271

>  <r_sd_BIOSOLVEIT.INFINISEE\_FTREES\_SIMILARITY>  (29) 
0.90600000000000003

>  <r_sd_BIOSOLVEIT.LOGP>  (29) 
3.3994200000000001

>  <r_sd_BIOSOLVEIT.MOLECULAR\_WEIGHT>  (29) 
439.55200000000002

>  <r_sd_BIOSOLVEIT.TPSA>  (29) 
65.969999999999999

>  <i_epik_Tot_Q>  (29) 
0

>  <i_epik_Tot_abs_Q>  (29) 
2

>  <i_f3d_flags>  (29) 
0

>  <i_i_glide_confnum>  (29) 
3

>  <i_i_glide_lignum>  (29) 
603

>  <i_i_glide_posenum>  (29) 
5

>  <i_i_glide_rotatable_bonds>  (29) 
10

>  <i_lp_mmshare_version>  (29) 
65135

>  <i_m_ct_format>  (29) 
2

>  <i_m_source_file_index>  (29) 
1580

>  <i_qp_#NandO>  (29) 
4

>  <i_qp_#acid>  (29) 
1

>  <i_qp_#amide>  (29) 
0

>  <i_qp_#amidine>  (29) 
0

>  <i_qp_#amine>  (29) 
1

>  <i_qp_#in34>  (29) 
0

>  <i_qp_#in56>  (29) 
22

>  <i_qp_#metab>  (29) 
7

>  <i_qp_#nonHatm>  (29) 
33

>  <i_qp_#noncon>  (29) 
0

>  <i_qp_#ringatoms>  (29) 
22

>  <i_qp_#rotor>  (29) 
10

>  <i_qp_#rtvFG>  (29) 
0

>  <i_qp_#stars>  (29) 
2

>  <i_qp_CNS>  (29) 
0

>  <i_qp_HumanOralAbsorption>  (29) 
1

>  <i_qp_RuleOfFive>  (29) 
0

>  <i_qp_RuleOfThree>  (29) 
2

>  <i_sd_BIOSOLVEIT.INFINISEE\_REAGENT1\_NAME>  (29) 
9304164

>  <i_sd_BIOSOLVEIT.INFINISEE\_REAGENT2\_NAME>  (29) 
13059962

>  <i_sd_BIOSOLVEIT.INFINISEE\_RESULT\_RANK>  (29) 
64470

>  <i_sd_version>  (29) 
0

>  <b_lp_Chiralities_Consistent>  (29) 
1

>  <b_sd_chiral_flag>  (29) 
0

>  <canonical_id>  (29) 
ATP-HTVS-3E4E6B1035DE

>  <compound_code>  (29) 
50531

>  <title>  (29) 
m_271304bba____9304164____13059962

>  <variant>  (29) 
50531-1

>  <source_file>  (29) 
运行/运行/ATP-VSW/ATP-VSW-DOCK_HTVS_1-003_lib/ATP-VSW-DOCK_HTVS_1-003_lib.mae

>  <canonical_smiles>  (29) 
Cc1cccc(C[C@H](C[NH2+]Cc2cc(OCc3ccccc3)c3ccccc3c2)C(=O)[O-])c1

>  <scaffold>  (29) 
c1ccc(CCC[NH2+]Cc2cc(OCc3ccccc3)c3ccccc3c2)cc1

>  <molecular_formula>  (29) 
C29H29NO3

>  <acquisition_id_v2>  (29) 
ATP-ACQ2-0029

>  <selection_arm_v2>  (29) 
local_structure_bridge

>  <priority_v2>  (29) 
P1

$$$$
ATP-ACQ2-0030
     RDKit          3D

 54 56  0  0  0  0  0  0  0  0999 V2000
  197.8047  184.9456  153.4958 Cl  0  0  0  0  0  0  0  0  0  0  0  0
  197.6941  183.3020  154.0042 C   0  0  0  0  0  0  0  0  0  0  0  0
  197.0227  182.3566  153.2711 N   0  0  0  0  0  0  0  0  0  0  0  0
  197.0893  181.1641  153.9112 N   0  0  0  0  0  0  0  0  0  0  0  0
  197.7905  181.3879  155.0196 C   0  0  0  0  0  0  0  0  0  0  0  0
  198.2065  182.7510  155.1392 C   0  0  0  0  0  0  0  0  0  0  0  0
  198.9573  183.4023  156.2591 C   0  0  0  0  0  0  0  0  0  0  0  0
  198.0605  184.2411  157.0338 N   0  0  0  0  0  0  0  0  0  0  0  0
  198.5827  184.4795  158.3655 C   0  0  0  0  0  0  0  0  0  0  0  0
  197.7464  185.5051  159.1127 C   0  0  0  0  0  0  0  0  0  0  0  0
  196.5930  185.1420  159.8544 C   0  0  0  0  0  0  0  0  0  0  0  0
  195.8565  186.1395  160.5298 C   0  0  0  0  0  0  0  0  0  0  0  0
  196.2550  187.4871  160.4707 C   0  0  0  0  0  0  0  0  0  0  0  0
  195.5504  188.4285  161.1471 F   0  0  0  0  0  0  0  0  0  0  0  0
  197.3853  187.8496  159.7186 C   0  0  0  0  0  0  0  0  0  0  0  0
  198.1253  186.8616  159.0372 C   0  0  0  0  0  0  0  0  0  0  0  0
  196.1342  183.6958  159.9586 C   0  0  0  0  0  0  0  0  0  0  0  0
  195.4373  183.2086  158.7708 N   0  0  0  0  0  0  0  0  0  0  0  0
  194.1294  183.8383  158.6278 C   0  0  0  0  0  0  0  0  0  0  0  0
  195.2407  181.7696  158.8669 C   0  0  0  0  0  0  0  0  0  0  0  0
  198.0458  180.2447  155.9624 C   0  0  0  0  0  0  0  0  0  0  0  0
  196.2816  182.4897  152.0288 C   0  0  0  0  0  0  0  0  0  0  0  0
  196.8584  181.6095  150.9358 C   0  0  0  0  0  0  0  0  0  0  0  0
  196.4703  180.2554  150.8358 C   0  0  0  0  0  0  0  0  0  0  0  0
  197.0284  179.4352  149.8371 C   0  0  0  0  0  0  0  0  0  0  0  0
  197.9704  179.9633  148.9335 C   0  0  0  0  0  0  0  0  0  0  0  0
  198.5062  179.1719  147.9762 F   0  0  0  0  0  0  0  0  0  0  0  0
  198.3536  181.3158  149.0261 C   0  0  0  0  0  0  0  0  0  0  0  0
  197.7979  182.1370  150.0262 C   0  0  0  0  0  0  0  0  0  0  0  0
  197.1466  183.8072  157.0948 H   0  0  0  0  0  0  0  0  0  0  0  0
  199.4131  182.6428  156.8953 H   0  0  0  0  0  0  0  0  0  0  0  0
  199.7804  184.0198  155.8972 H   0  0  0  0  0  0  0  0  0  0  0  0
  198.6260  183.5394  158.9155 H   0  0  0  0  0  0  0  0  0  0  0  0
  199.6099  184.8407  158.2990 H   0  0  0  0  0  0  0  0  0  0  0  0
  194.9778  185.8769  161.0966 H   0  0  0  0  0  0  0  0  0  0  0  0
  197.6938  188.8847  159.6742 H   0  0  0  0  0  0  0  0  0  0  0  0
  198.9951  187.1492  158.4660 H   0  0  0  0  0  0  0  0  0  0  0  0
  196.9951  183.0610  160.1638 H   0  0  0  0  0  0  0  0  0  0  0  0
  195.4867  183.6085  160.8305 H   0  0  0  0  0  0  0  0  0  0  0  0
  193.6144  183.4645  157.7460 H   0  0  0  0  0  0  0  0  0  0  0  0
  194.2326  184.9157  158.5240 H   0  0  0  0  0  0  0  0  0  0  0  0
  193.4959  183.6456  159.4963 H   0  0  0  0  0  0  0  0  0  0  0  0
  194.7477  181.3930  157.9681 H   0  0  0  0  0  0  0  0  0  0  0  0
  194.6274  181.5030  159.7283 H   0  0  0  0  0  0  0  0  0  0  0  0
  196.1960  181.2516  158.9566 H   0  0  0  0  0  0  0  0  0  0  0  0
  198.8042  179.5707  155.5653 H   0  0  0  0  0  0  0  0  0  0  0  0
  197.1456  179.6562  156.1281 H   0  0  0  0  0  0  0  0  0  0  0  0
  198.3848  180.5865  156.9395 H   0  0  0  0  0  0  0  0  0  0  0  0
  195.2429  182.2263  152.2103 H   0  0  0  0  0  0  0  0  0  0  0  0
  196.2821  183.5330  151.7112 H   0  0  0  0  0  0  0  0  0  0  0  0
  195.7574  179.8470  151.5361 H   0  0  0  0  0  0  0  0  0  0  0  0
  196.7462  178.3932  149.7669 H   0  0  0  0  0  0  0  0  0  0  0  0
  199.0773  181.7187  148.3353 H   0  0  0  0  0  0  0  0  0  0  0  0
  198.1012  183.1730  150.0994 H   0  0  0  0  0  0  0  0  0  0  0  0
  1  2  1  0
  2  3  1  0
  2  6  2  0
  3  4  1  0
  3 22  1  0
  4  5  2  0
  5  6  1  0
  5 21  1  0
  6  7  1  0
  7  8  1  0
  7 31  1  0
  7 32  1  0
  8  9  1  0
  8 30  1  0
  9 10  1  0
  9 33  1  0
  9 34  1  0
 10 11  2  0
 10 16  1  0
 11 12  1  0
 11 17  1  0
 12 13  2  0
 12 35  1  0
 13 14  1  0
 13 15  1  0
 15 16  2  0
 15 36  1  0
 16 37  1  0
 17 18  1  0
 17 38  1  0
 17 39  1  0
 18 19  1  0
 18 20  1  0
 19 40  1  0
 19 41  1  0
 19 42  1  0
 20 43  1  0
 20 44  1  0
 20 45  1  0
 21 46  1  0
 21 47  1  0
 21 48  1  0
 22 23  1  0
 22 49  1  0
 22 50  1  0
 23 24  1  0
 23 29  2  0
 24 25  2  0
 24 51  1  0
 25 26  1  0
 25 52  1  0
 26 27  1  0
 26 28  2  0
 28 29  1  0
 28 53  1  0
 29 54  1  0
M  END
>  <s_epik_cmdline>  (30) 
J2VwaWtfcHl0aG9uJywgJy1waCcsICc3LjAwMDAwMCcsICctcGh0JywgJzIuMDAwMDAwJywgJy1tcycsICcxNicsICctdG4nLCAnOCcsICctbWEnLCAnMjAwJywgJy1pbWFlJywgJzxpbmZpbGUubWFlPicsICctb21hZScsICc8b3V0ZmlsZS5tYWU+Jw==

>  <s_epik_input>  (30) 
W2NIXTFbY0hdYyhGKVtjSF1bY0hdYzFbQ0gyXW4oYzJDbCluYyhbQ0gzXSljMltDSDJdW05IXVtDSDJdYzNjKFtDSDJdTihbQ0gzXSlbQ0gzXSlbY0hdYyhGKVtjSF1bY0hdMw==

>  <s_i_glide_gridfile>  (30) 
ATP-Grid

>  <s_lp_Force_Field>  (30) 
OPLS_2005

>  <s_lp_Variant>  (30) 
m_270004bbb____24792668____7547884-4

>  <s_lp_label>  (30) 
2009_sdstereoexpander_1_neutralizer_1_epik_4_stereoizer_1

>  <s_m_source_file>  (30) 
ATP-VSW-LIGPREP-002-in.maegz

>  <s_sd_BIOSOLVEIT.INFINISEE\_QUERY\_NAME>  (30) 
Ref-Lig

>  <s_sd_BIOSOLVEIT.INFINISEE\_QUERY\_SMILES>  (30) 
S(c1nc2c(cc1C[NH2+]Cc3ccc(cc3)C[NH+](C)C)cccc2)Cc4ccccc4

>  <s_sd_BIOSOLVEIT.INFINISEE\_REACTION\_NAME>  (30) 
m_270004bbb

>  <s_sd_BIOSOLVEIT.INFINISEE\_REAGENT1\_SMILES>  (30) 
[R1*]NCc1c(cc(F)cc1)CN(C)C

>  <s_sd_BIOSOLVEIT.INFINISEE\_REAGENT2\_SMILES>  (30) 
[R1*]CC1=C(Cl)N(N=C1C)Cc2ccc(F)cc2

>  <s_sd_BIOSOLVEIT.INFINISEE\_SPACE>  (30) 
REALSpace_44bn_2023-08

>  <s_vsw_compound_code>  (30) 
64258

>  <s_vsw_variant>  (30) 
64258-4

>  <r_epik_Charging_Adjusted_Penalty>  (30) 
2.47739822211516

>  <r_epik_Ionization_Penalty>  (30) 
2.6507000000000001

>  <r_epik_Ionization_Penalty_Charging>  (30) 
0

>  <r_epik_Ionization_Penalty_Neutral>  (30) 
2.6507000000000001

>  <r_epik_State_Penalty>  (30) 
2.4773999999999998

>  <r_i_docking_score>  (30) 
-1.17766950734732

>  <r_i_glide_ecoul>  (30) 
-1.40055060386658

>  <r_i_glide_eff_state_penalty>  (30) 
2.4773999999999998

>  <r_i_glide_einternal>  (30) 
1.8493347167968801

>  <r_i_glide_emodel>  (30) 
-43.540563888471503

>  <r_i_glide_energy>  (30) 
-36.077220678329503

>  <r_i_glide_erotb>  (30) 
0.78895270682310903

>  <r_i_glide_esite>  (30) 
-0.032986006755230703

>  <r_i_glide_evdw>  (30) 
-34.676670074462898

>  <r_i_glide_gscore>  (30) 
-3.6550695073473198

>  <r_i_glide_hbond>  (30) 
0

>  <r_i_glide_ligand_efficiency>  (30) 
-0.040609293356804098

>  <r_i_glide_ligand_efficiency_ln>  (30) 
-0.26965645406048999

>  <r_i_glide_ligand_efficiency_sa>  (30) 
-0.124764615119282

>  <r_i_glide_lipo>  (30) 
-1.84665874817148

>  <r_i_glide_metal>  (30) 
-0

>  <r_i_glide_rewards>  (30) 
-0.62046136494058601

>  <r_lp_Energy>  (30) 
20.388435999999999

>  <r_lp_tautomer_probability>  (30) 
1

>  <r_qp_ACxDN^.5/SA>  (30) 
0.0068272000000000003

>  <r_qp_CIQPlogS>  (30) 
-4.8620000000000001

>  <r_qp_EA(eV)>  (30) 
0.46800000000000003

>  <r_qp_FISA>  (30) 
18.053000000000001

>  <r_qp_FOSA>  (30) 
281.17700000000002

>  <r_qp_IP(eV)>  (30) 
9.0909999999999993

>  <r_qp_Jm>  (30) 
0.0072180596204071698

>  <r_qp_PISA>  (30) 
241.74000000000001

>  <r_qp_PSA>  (30) 
31.388999999999999

>  <r_qp_PercentHumanOralAbsorption>  (30) 
100

>  <r_qp_QPPCaco>  (30) 
415.43900000000002

>  <r_qp_QPPMDCK>  (30) 
1039.9929999999999

>  <r_qp_QPlogBB>  (30) 
1.006

>  <r_qp_QPlogHERG>  (30) 
-6.3780000000000001

>  <r_qp_QPlogKhsa>  (30) 
0.879

>  <r_qp_QPlogKp>  (30) 
-4.3579999999999997

>  <r_qp_QPlogPC16>  (30) 
11.714

>  <r_qp_QPlogPo/w>  (30) 
4.9619999999999997

>  <r_qp_QPlogPoct>  (30) 
18.088000000000001

>  <r_qp_QPlogPw>  (30) 
7.2460000000000004

>  <r_qp_QPlogS>  (30) 
-3.4060000000000001

>  <r_qp_QPpolrz>  (30) 
41.933999999999997

>  <r_qp_SASA>  (30) 
659.12699999999995

>  <r_qp_SAamideO>  (30) 
0

>  <r_qp_SAfluorine>  (30) 
88.902000000000001

>  <r_qp_WPSA>  (30) 
118.158

>  <r_qp_accptHB>  (30) 
4.5

>  <r_qp_dip^2/V>  (30) 
0.019114800000000001

>  <r_qp_dipole>  (30) 
4.931

>  <r_qp_donorHB>  (30) 
1

>  <r_qp_glob>  (30) 
0.86148950000000002

>  <r_qp_mol_MW>  (30) 
418.916

>  <r_qp_volume>  (30) 
1272.2750000000001

>  <r_sd_BIOSOLVEIT.INFINISEE\_FTREES\_SIMILARITY>  (30) 
0.90200000000000002

>  <r_sd_BIOSOLVEIT.LOGP>  (30) 
2.07952

>  <r_sd_BIOSOLVEIT.MOLECULAR\_WEIGHT>  (30) 
420.93200000000002

>  <r_sd_BIOSOLVEIT.TPSA>  (30) 
38.869999999999997

>  <i_epik_Tot_Q>  (30) 
0

>  <i_epik_Tot_abs_Q>  (30) 
0

>  <i_f3d_flags>  (30) 
0

>  <i_i_glide_confnum>  (30) 
6

>  <i_i_glide_lignum>  (30) 
727

>  <i_i_glide_posenum>  (30) 
3

>  <i_i_glide_rotatable_bonds>  (30) 
8

>  <i_lp_mmshare_version>  (30) 
65135

>  <i_m_ct_format>  (30) 
2

>  <i_m_source_file_index>  (30) 
2009

>  <i_qp_#NandO>  (30) 
4

>  <i_qp_#acid>  (30) 
0

>  <i_qp_#amide>  (30) 
0

>  <i_qp_#amidine>  (30) 
0

>  <i_qp_#amine>  (30) 
2

>  <i_qp_#in34>  (30) 
0

>  <i_qp_#in56>  (30) 
17

>  <i_qp_#metab>  (30) 
7

>  <i_qp_#nonHatm>  (30) 
29

>  <i_qp_#noncon>  (30) 
0

>  <i_qp_#ringatoms>  (30) 
17

>  <i_qp_#rotor>  (30) 
8

>  <i_qp_#rtvFG>  (30) 
0

>  <i_qp_#stars>  (30) 
0

>  <i_qp_CNS>  (30) 
2

>  <i_qp_HumanOralAbsorption>  (30) 
3

>  <i_qp_RuleOfFive>  (30) 
0

>  <i_qp_RuleOfThree>  (30) 
1

>  <i_sd_BIOSOLVEIT.INFINISEE\_REAGENT1\_NAME>  (30) 
24792668

>  <i_sd_BIOSOLVEIT.INFINISEE\_REAGENT2\_NAME>  (30) 
7547884

>  <i_sd_BIOSOLVEIT.INFINISEE\_RESULT\_RANK>  (30) 
91325

>  <i_sd_version>  (30) 
0

>  <b_lp_Chiralities_Consistent>  (30) 
1

>  <b_sd_chiral_flag>  (30) 
0

>  <canonical_id>  (30) 
ATP-HTVS-AC6C82062264

>  <compound_code>  (30) 
64258

>  <title>  (30) 
m_270004bbb____24792668____7547884

>  <variant>  (30) 
64258-4

>  <source_file>  (30) 
运行/运行/ATP-VSW/ATP-VSW-DOCK_HTVS_1-002_lib.maegz

>  <canonical_smiles>  (30) 
Cc1nn(Cc2ccc(F)cc2)c(Cl)c1CNCc1ccc(F)cc1CN(C)C

>  <scaffold>  (30) 
c1ccc(CNCc2cnn(Cc3ccccc3)c2)cc1

>  <molecular_formula>  (30) 
C22H25ClF2N4

>  <acquisition_id_v2>  (30) 
ATP-ACQ2-0030

>  <selection_arm_v2>  (30) 
scaffold_score_exploration

>  <priority_v2>  (30) 
P1

$$$$
ATP-ACQ2-0031
     RDKit          3D

 54 56  0  0  0  0  0  0  0  0999 V2000
  193.1572  183.3289  158.9177 F   0  0  0  0  0  0  0  0  0  0  0  0
  194.5072  183.3685  158.8367 C   0  0  0  0  0  0  0  0  0  0  0  0
  195.2142  184.4273  159.4348 C   0  0  0  0  0  0  0  0  0  0  0  0
  196.5565  184.5504  159.3054 N   0  0  0  0  0  0  0  0  0  0  0  0
  197.2302  183.6246  158.5891 C   0  0  0  0  0  0  0  0  0  0  0  0
  196.6155  182.5111  157.9805 C   0  0  0  0  0  0  0  0  0  0  0  0
  197.3334  181.5495  157.2564 N   0  0  0  0  0  0  0  0  0  0  0  0
  198.4027  181.9755  156.3600 C   0  0  0  0  0  0  0  0  0  0  0  0
  198.9457  180.8641  155.4754 C   0  0  0  0  0  0  0  0  0  0  0  0
  199.1418  179.5734  156.0071 C   0  0  0  0  0  0  0  0  0  0  0  0
  199.6976  178.5420  155.2205 C   0  0  0  0  0  0  0  0  0  0  0  0
  200.0187  178.7978  153.8707 C   0  0  0  0  0  0  0  0  0  0  0  0
  199.7933  180.0755  153.3236 C   0  0  0  0  0  0  0  0  0  0  0  0
  199.2683  181.1099  154.1248 C   0  0  0  0  0  0  0  0  0  0  0  0
  199.9379  177.1622  155.8173 C   0  0  0  0  0  0  0  0  0  0  0  0
  201.1848  177.1075  156.6205 N   0  0  0  0  0  0  0  0  0  0  0  0
  201.0126  177.6317  157.9978 C   0  0  0  0  0  0  0  0  0  0  0  0
  201.7988  175.7601  156.6202 C   0  0  0  0  0  0  0  0  0  0  0  0
  195.2183  182.3766  158.1278 C   0  0  0  0  0  0  0  0  0  0  0  0
  194.3906  185.3445  160.1331 N   0  0  0  0  0  0  0  0  0  0  0  0
  194.7561  186.3543  160.9311 C   0  0  0  0  0  0  0  0  0  0  0  0
  195.9088  186.6624  161.2229 O   0  0  0  0  0  0  0  0  0  0  0  0
  193.6405  187.1026  161.4595 C   0  0  0  0  0  0  0  0  0  0  0  0
  192.7459  187.7978  161.9160 C   0  0  0  0  0  0  0  0  0  0  0  0
  191.7025  188.6437  162.4675 C   0  0  0  0  0  0  0  0  0  0  0  0
  190.6166  189.0458  161.6618 C   0  0  0  0  0  0  0  0  0  0  0  0
  189.5943  189.8454  162.2076 C   0  0  0  0  0  0  0  0  0  0  0  0
  189.6615  190.2484  163.5554 C   0  0  0  0  0  0  0  0  0  0  0  0
  190.7499  189.8557  164.3576 C   0  0  0  0  0  0  0  0  0  0  0  0
  191.7708  189.0526  163.8141 C   0  0  0  0  0  0  0  0  0  0  0  0
  198.2987  183.7727  158.5257 H   0  0  0  0  0  0  0  0  0  0  0  0
  196.8423  180.6841  157.0419 H   0  0  0  0  0  0  0  0  0  0  0  0
  198.0369  182.7820  155.7278 H   0  0  0  0  0  0  0  0  0  0  0  0
  199.2359  182.3810  156.9348 H   0  0  0  0  0  0  0  0  0  0  0  0
  198.8546  179.3877  157.0332 H   0  0  0  0  0  0  0  0  0  0  0  0
  200.4195  178.0173  153.2390 H   0  0  0  0  0  0  0  0  0  0  0  0
  200.0252  180.2598  152.2852 H   0  0  0  0  0  0  0  0  0  0  0  0
  199.1102  182.0885  153.6920 H   0  0  0  0  0  0  0  0  0  0  0  0
  199.0820  176.8523  156.4152 H   0  0  0  0  0  0  0  0  0  0  0  0
  199.9967  176.4527  154.9891 H   0  0  0  0  0  0  0  0  0  0  0  0
  200.2624  177.0621  158.5491 H   0  0  0  0  0  0  0  0  0  0  0  0
  200.7279  178.6808  158.0073 H   0  0  0  0  0  0  0  0  0  0  0  0
  201.9509  177.5817  158.5361 H   0  0  0  0  0  0  0  0  0  0  0  0
  201.1491  175.0397  157.1084 H   0  0  0  0  0  0  0  0  0  0  0  0
  202.7449  175.7639  157.1603 H   0  0  0  0  0  0  0  0  0  0  0  0
  202.0135  175.4091  155.6081 H   0  0  0  0  0  0  0  0  0  0  0  0
  194.6964  181.5554  157.6533 H   0  0  0  0  0  0  0  0  0  0  0  0
  193.3988  185.2255  159.9631 H   0  0  0  0  0  0  0  0  0  0  0  0
  190.5561  188.7409  160.6264 H   0  0  0  0  0  0  0  0  0  0  0  0
  188.7498  190.1437  161.6030 H   0  0  0  0  0  0  0  0  0  0  0  0
  188.8682  190.8530  163.9702 H   0  0  0  0  0  0  0  0  0  0  0  0
  190.8012  190.1614  165.3919 H   0  0  0  0  0  0  0  0  0  0  0  0
  192.6006  188.7502  164.4364 H   0  0  0  0  0  0  0  0  0  0  0  0
  201.8531  177.7118  156.1631 H   0  0  0  0  0  0  0  0  0  0  0  0
  1  2  1  0
  2  3  2  0
  2 19  1  0
  3  4  1  0
  3 20  1  0
  4  5  2  0
  5  6  1  0
  5 31  1  0
  6  7  1  0
  6 19  2  0
  7  8  1  0
  7 32  1  0
  8  9  1  0
  8 33  1  0
  8 34  1  0
  9 10  2  0
  9 14  1  0
 10 11  1  0
 10 35  1  0
 11 12  2  0
 11 15  1  0
 12 13  1  0
 12 36  1  0
 13 14  2  0
 13 37  1  0
 14 38  1  0
 15 16  1  0
 15 39  1  0
 15 40  1  0
 16 17  1  0
 16 18  1  0
 16 54  1  0
 17 41  1  0
 17 42  1  0
 17 43  1  0
 18 44  1  0
 18 45  1  0
 18 46  1  0
 19 47  1  0
 20 21  1  0
 20 48  1  0
 21 22  2  0
 21 23  1  0
 23 24  3  0
 24 25  1  0
 25 26  2  0
 25 30  1  0
 26 27  1  0
 26 49  1  0
 27 28  2  0
 27 50  1  0
 28 29  1  0
 28 51  1  0
 29 30  2  0
 29 52  1  0
 30 53  1  0
M  CHG  1  16   1
M  END
>  <s_epik_cmdline>  (31) 
J2VwaWtfcHl0aG9uJywgJy1waCcsICc3LjAwMDAwMCcsICctcGh0JywgJzIuMDAwMDAwJywgJy1tcycsICcxNicsICctdG4nLCAnOCcsICctbWEnLCAnMjAwJywgJy1pbWFlJywgJzxpbmZpbGUubWFlPicsICctb21hZScsICc8b3V0ZmlsZS5tYWU+Jw==

>  <s_epik_input>  (31) 
W2NIXTFbY0hdW2NIXVtjSF1bY0hdYzFDI0NDKD1PKVtOSF1jKGMyRiluW2NIXWMoW2NIXTIpW05IXVtDSDJdYzNbY0hdYyhbY0hdW2NIXVtjSF0zKVtDSDJdTihbQ0gzXSlbQ0gzXQ==

>  <s_i_glide_gridfile>  (31) 
ATP-Grid

>  <s_lp_Force_Field>  (31) 
OPLS_2005

>  <s_lp_Variant>  (31) 
rxn502a____EMOL530803____EMOL44820718____EMOL2873214-1

>  <s_lp_label>  (31) 
2821_sdstereoexpander_1_neutralizer_1_epik_1_stereoizer_1

>  <s_m_source_file>  (31) 
ATP-VSW-LIGPREP-002-in.maegz

>  <s_sd_BIOSOLVEIT.INFINISEE\_QUERY\_NAME>  (31) 
Ref-Lig

>  <s_sd_BIOSOLVEIT.INFINISEE\_QUERY\_SMILES>  (31) 
S(c1nc2c(cc1C[NH2+]Cc3ccc(cc3)C[NH+](C)C)cccc2)Cc4ccccc4

>  <s_sd_BIOSOLVEIT.INFINISEE\_REACTION\_NAME>  (31) 
rxn502a

>  <s_sd_BIOSOLVEIT.INFINISEE\_REAGENT1\_NAME>  (31) 
EMOL530803

>  <s_sd_BIOSOLVEIT.INFINISEE\_REAGENT1\_SMILES>  (31) 
O=C(O)C#Cc1ccccc1

>  <s_sd_BIOSOLVEIT.INFINISEE\_REAGENT2\_NAME>  (31) 
EMOL44820718

>  <s_sd_BIOSOLVEIT.INFINISEE\_REAGENT2\_SMILES>  (31) 
Ic1cnc(N)c(F)c1

>  <s_sd_BIOSOLVEIT.INFINISEE\_REAGENT3\_NAME>  (31) 
EMOL2873214

>  <s_sd_BIOSOLVEIT.INFINISEE\_REAGENT3\_SMILES>  (31) 
N(Cc1cc(ccc1)CN)(C)C

>  <s_sd_BIOSOLVEIT.INFINISEE\_SPACE>  (31) 
eXplore_7tr_2022-12

>  <s_vsw_compound_code>  (31) 
90242

>  <s_vsw_variant>  (31) 
90242-1

>  <r_epik_Charging_Adjusted_Penalty>  (31) 
0.088195370499548398

>  <r_epik_Ionization_Penalty>  (31) 
0.0441

>  <r_epik_Ionization_Penalty_Charging>  (31) 
0.0441

>  <r_epik_Ionization_Penalty_Neutral>  (31) 
0

>  <r_epik_State_Penalty>  (31) 
0.0441

>  <r_i_docking_score>  (31) 
-6.28735821177687

>  <r_i_glide_ecoul>  (31) 
-8.5576972961425799

>  <r_i_glide_eff_state_penalty>  (31) 
0.0441

>  <r_i_glide_einternal>  (31) 
3.0866422653198202

>  <r_i_glide_emodel>  (31) 
-74.958466193830404

>  <r_i_glide_energy>  (31) 
-51.509101867675803

>  <r_i_glide_erotb>  (31) 
0.84425855915255898

>  <r_i_glide_esite>  (31) 
-0.13655671684415799

>  <r_i_glide_evdw>  (31) 
-42.951404571533203

>  <r_i_glide_gscore>  (31) 
-6.3314582117768703

>  <r_i_glide_hbond>  (31) 
-0.13995600385006901

>  <r_i_glide_ligand_efficiency>  (31) 
-0.20957860705922901

>  <r_i_glide_ligand_efficiency_ln>  (31) 
-1.4285562919703401

>  <r_i_glide_ligand_efficiency_sa>  (31) 
-0.65120945966867005

>  <r_i_glide_lipo>  (31) 
-2.19588329579015

>  <r_i_glide_metal>  (31) 
-0

>  <r_i_glide_rewards>  (31) 
-1.272095931447

>  <r_lp_Energy>  (31) 
20.141065999999999

>  <r_lp_tautomer_probability>  (31) 
0.999999999999999

>  <r_qp_ACxDN^.5/SA>  (31) 
0.011607299999999999

>  <r_qp_CIQPlogS>  (31) 
-4.7839999999999998

>  <r_qp_EA(eV)>  (31) 
0.45600000000000002

>  <r_qp_FISA>  (31) 
100.98399999999999

>  <r_qp_FOSA>  (31) 
223.005

>  <r_qp_IP(eV)>  (31) 
8.3049999999999997

>  <r_qp_Jm>  (31) 
0.00038919620878071198

>  <r_qp_PISA>  (31) 
425.90100000000001

>  <r_qp_PSA>  (31) 
69.867000000000004

>  <r_qp_PercentHumanOralAbsorption>  (31) 
95.563000000000002

>  <r_qp_QPPCaco>  (31) 
272.375

>  <r_qp_QPPMDCK>  (31) 
228.09299999999999

>  <r_qp_QPlogBB>  (31) 
-0.60799999999999998

>  <r_qp_QPlogHERG>  (31) 
-8.3030000000000008

>  <r_qp_QPlogKhsa>  (31) 
0.64000000000000001

>  <r_qp_QPlogKp>  (31) 
-3.1749999999999998

>  <r_qp_QPlogPC16>  (31) 
15.098000000000001

>  <r_qp_QPlogPo/w>  (31) 
4.2750000000000004

>  <r_qp_QPlogPoct>  (31) 
22.600000000000001

>  <r_qp_QPlogPw>  (31) 
12.791

>  <r_qp_QPlogS>  (31) 
-5.8399999999999999

>  <r_qp_QPpolrz>  (31) 
47.463000000000001

>  <r_qp_SASA>  (31) 
791.94899999999996

>  <r_qp_SAamideO>  (31) 
0

>  <r_qp_SAfluorine>  (31) 
42.058999999999997

>  <r_qp_WPSA>  (31) 
42.058999999999997

>  <r_qp_accptHB>  (31) 
6.5

>  <r_qp_dip^2/V>  (31) 
0.031214499999999999

>  <r_qp_dipole>  (31) 
6.5309999999999997

>  <r_qp_donorHB>  (31) 
2

>  <r_qp_glob>  (31) 
0.75197789999999998

>  <r_qp_mol_MW>  (31) 
402.47000000000003

>  <r_qp_volume>  (31) 
1366.4870000000001

>  <r_sd_BIOSOLVEIT.INFINISEE\_FTREES\_SIMILARITY>  (31) 
0.90600000000000003

>  <r_sd_BIOSOLVEIT.LOGP>  (31) 
2.4674999999999998

>  <r_sd_BIOSOLVEIT.MOLECULAR\_WEIGHT>  (31) 
403.47899999999998

>  <r_sd_BIOSOLVEIT.TPSA>  (31) 
58.460000000000001

>  <i_epik_Tot_Q>  (31) 
1

>  <i_epik_Tot_abs_Q>  (31) 
1

>  <i_f3d_flags>  (31) 
0

>  <i_i_glide_confnum>  (31) 
3

>  <i_i_glide_lignum>  (31) 
1376

>  <i_i_glide_posenum>  (31) 
6

>  <i_i_glide_rotatable_bonds>  (31) 
9

>  <i_lp_mmshare_version>  (31) 
65135

>  <i_m_ct_format>  (31) 
2

>  <i_m_source_file_index>  (31) 
2821

>  <i_qp_#NandO>  (31) 
5

>  <i_qp_#acid>  (31) 
0

>  <i_qp_#amide>  (31) 
0

>  <i_qp_#amidine>  (31) 
0

>  <i_qp_#amine>  (31) 
1

>  <i_qp_#in34>  (31) 
0

>  <i_qp_#in56>  (31) 
18

>  <i_qp_#metab>  (31) 
6

>  <i_qp_#nonHatm>  (31) 
30

>  <i_qp_#noncon>  (31) 
0

>  <i_qp_#ringatoms>  (31) 
18

>  <i_qp_#rotor>  (31) 
8

>  <i_qp_#rtvFG>  (31) 
0

>  <i_qp_#stars>  (31) 
0

>  <i_qp_CNS>  (31) 
1

>  <i_qp_HumanOralAbsorption>  (31) 
3

>  <i_qp_RuleOfFive>  (31) 
0

>  <i_qp_RuleOfThree>  (31) 
1

>  <i_sd_BIOSOLVEIT.INFINISEE\_RESULT\_RANK>  (31) 
65685

>  <i_sd_version>  (31) 
0

>  <b_lp_Chiralities_Consistent>  (31) 
1

>  <b_sd_chiral_flag>  (31) 
0

>  <canonical_id>  (31) 
ATP-HTVS-98E751432A52

>  <compound_code>  (31) 
90242

>  <title>  (31) 
rxn502a____EMOL530803____EMOL44820718____EMOL2873214

>  <variant>  (31) 
90242-1

>  <source_file>  (31) 
运行/运行/ATP-VSW/ATP-VSW-DOCK_HTVS_1-002_lib.maegz

>  <canonical_smiles>  (31) 
C[NH+](C)Cc1cccc(CNc2cnc(NC(=O)C#Cc3ccccc3)c(F)c2)c1

>  <scaffold>  (31) 
O=C(C#Cc1ccccc1)Nc1ccc(NCc2ccccc2)cn1

>  <molecular_formula>  (31) 
C24H24FN4O+

>  <acquisition_id_v2>  (31) 
ATP-ACQ2-0031

>  <selection_arm_v2>  (31) 
exploitation

>  <priority_v2>  (31) 
P1

$$$$
ATP-ACQ2-0032
     RDKit          3D

 55 58  0  0  0  0  0  0  0  0999 V2000
  193.9603  183.4045  158.9847 O   0  0  0  0  0  0  0  0  0  0  0  0
  194.4782  182.3659  158.5844 C   0  0  0  0  0  0  0  0  0  0  0  0
  193.7173  181.3036  158.3239 N   0  0  0  0  0  0  0  0  0  0  0  0
  196.0050  182.2264  158.3753 C   0  0  1  0  0  0  0  0  0  0  0  0
  196.3429  181.4790  157.1472 N   0  0  0  0  0  0  0  0  0  0  0  0
  197.7293  181.6372  156.6278 C   0  0  0  0  0  0  0  0  0  0  0  0
  197.9106  180.8383  155.3686 C   0  0  0  0  0  0  0  0  0  0  0  0
  198.6604  179.6533  155.4137 C   0  0  0  0  0  0  0  0  0  0  0  0
  198.9098  178.9200  154.2400 C   0  0  0  0  0  0  0  0  0  0  0  0
  199.6799  177.7749  154.2324 O   0  0  0  0  0  0  0  0  0  0  0  0
  200.1538  177.2628  155.4742 C   0  0  0  0  0  0  0  0  0  0  0  0
  201.0805  176.0824  155.2628 C   0  0  0  0  0  0  0  0  0  0  0  0
  201.8864  175.6206  156.3224 C   0  0  0  0  0  0  0  0  0  0  0  0
  202.7556  174.5349  156.1253 C   0  0  0  0  0  0  0  0  0  0  0  0
  202.8207  173.9014  154.8696 C   0  0  0  0  0  0  0  0  0  0  0  0
  202.0177  174.3614  153.8089 C   0  0  0  0  0  0  0  0  0  0  0  0
  201.1479  175.4520  154.0031 C   0  0  0  0  0  0  0  0  0  0  0  0
  198.3561  179.3698  153.0112 C   0  0  0  0  0  0  0  0  0  0  0  0
  197.5748  180.5609  152.9750 C   0  0  0  0  0  0  0  0  0  0  0  0
  197.3603  181.2891  154.1551 C   0  0  0  0  0  0  0  0  0  0  0  0
  197.0245  181.0076  151.7480 C   0  0  0  0  0  0  0  0  0  0  0  0
  197.2249  180.2609  150.5744 C   0  0  0  0  0  0  0  0  0  0  0  0
  197.9832  179.0746  150.6088 C   0  0  0  0  0  0  0  0  0  0  0  0
  198.5494  178.6419  151.8275 C   0  0  0  0  0  0  0  0  0  0  0  0
  196.5928  183.6035  158.3952 C   0  0  0  0  0  0  0  0  0  0  0  0
  196.7280  184.3539  157.2060 C   0  0  0  0  0  0  0  0  0  0  0  0
  197.3024  185.6155  157.1669 C   0  0  0  0  0  0  0  0  0  0  0  0
  197.7082  186.2236  158.3660 C   0  0  0  0  0  0  0  0  0  0  0  0
  197.5443  185.5296  159.5815 C   0  0  0  0  0  0  0  0  0  0  0  0
  197.0099  184.2305  159.5887 C   0  0  0  0  0  0  0  0  0  0  0  0
  196.1651  180.4403  157.3276 H   0  0  0  0  0  0  0  0  0  0  0  0
  192.7157  181.4201  158.4093 H   0  0  0  0  0  0  0  0  0  0  0  0
  194.1221  180.4068  158.0479 H   0  0  0  0  0  0  0  0  0  0  0  0
  196.4073  181.6623  159.2119 H   0  0  0  0  0  0  0  0  0  0  0  0
  198.0059  182.6446  156.3287 H   0  0  0  0  0  0  0  0  0  0  0  0
  198.4513  181.2897  157.3857 H   0  0  0  0  0  0  0  0  0  0  0  0
  199.0668  179.3598  156.3680 H   0  0  0  0  0  0  0  0  0  0  0  0
  200.7185  178.0203  156.0218 H   0  0  0  0  0  0  0  0  0  0  0  0
  199.3145  176.9541  156.1035 H   0  0  0  0  0  0  0  0  0  0  0  0
  201.8349  176.1036  157.2896 H   0  0  0  0  0  0  0  0  0  0  0  0
  203.3670  174.1768  156.9440 H   0  0  0  0  0  0  0  0  0  0  0  0
  203.4763  173.0558  154.7161 H   0  0  0  0  0  0  0  0  0  0  0  0
  202.0643  173.8828  152.8425 H   0  0  0  0  0  0  0  0  0  0  0  0
  200.5444  175.7928  153.1772 H   0  0  0  0  0  0  0  0  0  0  0  0
  196.7988  182.2139  154.1207 H   0  0  0  0  0  0  0  0  0  0  0  0
  196.4377  181.9186  151.7084 H   0  0  0  0  0  0  0  0  0  0  0  0
  196.8001  180.5939  149.6340 H   0  0  0  0  0  0  0  0  0  0  0  0
  198.1437  178.4979  149.7146 H   0  0  0  0  0  0  0  0  0  0  0  0
  199.1305  177.7261  151.8448 H   0  0  0  0  0  0  0  0  0  0  0  0
  196.3438  183.9182  156.2786 H   0  0  0  0  0  0  0  0  0  0  0  0
  197.3882  186.1258  156.2156 H   0  0  0  0  0  0  0  0  0  0  0  0
  198.1549  187.2217  158.3360 H   0  0  0  0  0  0  0  0  0  0  0  0
  197.8569  186.0057  160.5149 H   0  0  0  0  0  0  0  0  0  0  0  0
  196.9152  183.7009  160.5352 H   0  0  0  0  0  0  0  0  0  0  0  0
  195.7019  181.7685  156.4413 H   0  0  0  0  0  0  0  0  0  0  0  0
  1  2  2  0
  2  3  1  0
  2  4  1  0
  3 32  1  0
  3 33  1  0
  4  5  1  0
  4 25  1  0
  4 34  1  1
  5  6  1  0
  5 31  1  0
  5 55  1  0
  6  7  1  0
  6 35  1  0
  6 36  1  0
  7  8  1  0
  7 20  2  0
  8  9  2  0
  8 37  1  0
  9 10  1  0
  9 18  1  0
 10 11  1  0
 11 12  1  0
 11 38  1  0
 11 39  1  0
 12 13  2  0
 12 17  1  0
 13 14  1  0
 13 40  1  0
 14 15  2  0
 14 41  1  0
 15 16  1  0
 15 42  1  0
 16 17  2  0
 16 43  1  0
 17 44  1  0
 18 19  1  0
 18 24  2  0
 19 20  1  0
 19 21  2  0
 20 45  1  0
 21 22  1  0
 21 46  1  0
 22 23  2  0
 22 47  1  0
 23 24  1  0
 23 48  1  0
 24 49  1  0
 25 26  2  0
 25 30  1  0
 26 27  1  0
 26 50  1  0
 27 28  2  0
 27 51  1  0
 28 29  1  0
 28 52  1  0
 29 30  2  0
 29 53  1  0
 30 54  1  0
M  CHG  1   5   1
M  END
>  <s_epik_cmdline>  (32) 
J2VwaWtfcHl0aG9uJywgJy1waCcsICc3LjAwMDAwMCcsICctcGh0JywgJzIuMDAwMDAwJywgJy1tcycsICcxNicsICctdG4nLCAnOCcsICctbWEnLCAnMjAwJywgJy1pbWFlJywgJzxpbmZpbGUubWFlPicsICctb21hZScsICc8b3V0ZmlsZS5tYWU+Jw==

>  <s_epik_input>  (32) 
W2NIXTFbY0hdW2NIXVtjSF1bY0hdYzFbQ0BASF0oQyg9TylbTkgyXSlbTkhdW0NIMl1jKFtjSF1jKGMyMylbY0hdW2NIXVtjSF1bY0hdMylbY0hdYzJPW0NIMl1jNFtjSF1bY0hdW2NIXVtjSF1bY0hdNA==

>  <s_i_glide_gridfile>  (32) 
ATP-Grid

>  <s_lp_Force_Field>  (32) 
OPLS_2005

>  <s_lp_Variant>  (32) 
m_270004beb____8289658____8127862-4

>  <s_lp_label>  (32) 
1399_sdstereoexpander_2_neutralizer_1_epik_2_stereoizer_1

>  <s_m_source_file>  (32) 
ATP-VSW-LIGPREP-003-in.maegz

>  <s_sd_BIOSOLVEIT.INFINISEE\_QUERY\_NAME>  (32) 
Ref-Lig

>  <s_sd_BIOSOLVEIT.INFINISEE\_QUERY\_SMILES>  (32) 
S(c1nc2c(cc1C[NH2+]Cc3ccc(cc3)C[NH+](C)C)cccc2)Cc4ccccc4

>  <s_sd_BIOSOLVEIT.INFINISEE\_REACTION\_NAME>  (32) 
m_270004beb

>  <s_sd_BIOSOLVEIT.INFINISEE\_REAGENT1\_SMILES>  (32) 
[R1*]NC(c1ccccc1)C(=O)N

>  <s_sd_BIOSOLVEIT.INFINISEE\_REAGENT2\_SMILES>  (32) 
[R1*]Cc1cc(OCc2ccccc2)c3c(c1)cccc3

>  <s_sd_BIOSOLVEIT.INFINISEE\_SPACE>  (32) 
REALSpace_44bn_2023-08

>  <s_vsw_compound_code>  (32) 
44739

>  <s_vsw_variant>  (32) 
44739-4

>  <r_epik_Charging_Adjusted_Penalty>  (32) 
1.86145831274405

>  <r_epik_Ionization_Penalty>  (32) 
0.93069999999999997

>  <r_epik_Ionization_Penalty_Charging>  (32) 
0.93069999999999997

>  <r_epik_Ionization_Penalty_Neutral>  (32) 
0

>  <r_epik_State_Penalty>  (32) 
0.93069999999999997

>  <r_i_docking_score>  (32) 
-5.7046514491807203

>  <r_i_glide_ecoul>  (32) 
-15.3816919326782

>  <r_i_glide_eff_state_penalty>  (32) 
0.93069999999999997

>  <r_i_glide_einternal>  (32) 
7.2495903968811

>  <r_i_glide_emodel>  (32) 
-82.036373296510007

>  <r_i_glide_energy>  (32) 
-53.4200792312622

>  <r_i_glide_erotb>  (32) 
0.74337668207228103

>  <r_i_glide_esite>  (32) 
-0.27940129357196403

>  <r_i_glide_evdw>  (32) 
-38.038387298583999

>  <r_i_glide_gscore>  (32) 
-6.6353514491807202

>  <r_i_glide_hbond>  (32) 
-0.342957250920644

>  <r_i_glide_ligand_efficiency>  (32) 
-0.190155048306024

>  <r_i_glide_ligand_efficiency_ln>  (32) 
-1.2961589664098001

>  <r_i_glide_ligand_efficiency_sa>  (32) 
-0.59085594659783203

>  <r_i_glide_lipo>  (32) 
-1.6232571137476499

>  <r_i_glide_metal>  (32) 
-0

>  <r_i_glide_rewards>  (32) 
-0.92393931818181696

>  <r_lp_Energy>  (32) 
22.393961000000001

>  <r_qp_ACxDN^.5/SA>  (32) 
0.0108682

>  <r_qp_CIQPlogS>  (32) 
-4.8099999999999996

>  <r_qp_EA(eV)>  (32) 
0.46100000000000002

>  <r_qp_FISA>  (32) 
92.302000000000007

>  <r_qp_FOSA>  (32) 
69.963999999999999

>  <r_qp_IP(eV)>  (32) 
8.1329999999999991

>  <r_qp_Jm>  (32) 
0.046905417916034697

>  <r_qp_PISA>  (32) 
594.73299999999995

>  <r_qp_PSA>  (32) 
67.215000000000003

>  <r_qp_PercentHumanOralAbsorption>  (32) 
92.331999999999994

>  <r_qp_QPPCaco>  (32) 
196.93199999999999

>  <r_qp_QPPMDCK>  (32) 
164.703

>  <r_qp_QPlogBB>  (32) 
-0.55000000000000004

>  <r_qp_QPlogHERG>  (32) 
-7.3920000000000003

>  <r_qp_QPlogKhsa>  (32) 
0.46700000000000003

>  <r_qp_QPlogKp>  (32) 
-2.4199999999999999

>  <r_qp_QPlogPC16>  (32) 
16.263000000000002

>  <r_qp_QPlogPo/w>  (32) 
4.1539999999999999

>  <r_qp_QPlogPoct>  (32) 
23.201000000000001

>  <r_qp_QPlogPw>  (32) 
15.597

>  <r_qp_QPlogS>  (32) 
-4.5069999999999997

>  <r_qp_QPpolrz>  (32) 
47.662999999999997

>  <r_qp_SASA>  (32) 
756.99900000000002

>  <r_qp_SAamideO>  (32) 
28.038

>  <r_qp_SAfluorine>  (32) 
0

>  <r_qp_WPSA>  (32) 
0

>  <r_qp_accptHB>  (32) 
4.75

>  <r_qp_dip^2/V>  (32) 
0.024077600000000001

>  <r_qp_dipole>  (32) 
5.6609999999999996

>  <r_qp_donorHB>  (32) 
3

>  <r_qp_glob>  (32) 
0.77309300000000003

>  <r_qp_mol_MW>  (32) 
396.488

>  <r_qp_volume>  (32) 
1331.1990000000001

>  <r_sd_BIOSOLVEIT.INFINISEE\_FTREES\_SIMILARITY>  (32) 
0.90800000000000003

>  <r_sd_BIOSOLVEIT.LOGP>  (32) 
3.7088000000000001

>  <r_sd_BIOSOLVEIT.MOLECULAR\_WEIGHT>  (32) 
397.49599999999998

>  <r_sd_BIOSOLVEIT.TPSA>  (32) 
68.930000000000007

>  <i_epik_Tot_Q>  (32) 
1

>  <i_epik_Tot_abs_Q>  (32) 
1

>  <i_f3d_flags>  (32) 
0

>  <i_i_glide_confnum>  (32) 
3

>  <i_i_glide_lignum>  (32) 
548

>  <i_i_glide_posenum>  (32) 
8

>  <i_i_glide_rotatable_bonds>  (32) 
8

>  <i_lp_mmshare_version>  (32) 
65135

>  <i_m_ct_format>  (32) 
2

>  <i_m_source_file_index>  (32) 
1399

>  <i_qp_#NandO>  (32) 
4

>  <i_qp_#acid>  (32) 
0

>  <i_qp_#amide>  (32) 
1

>  <i_qp_#amidine>  (32) 
0

>  <i_qp_#amine>  (32) 
1

>  <i_qp_#in34>  (32) 
0

>  <i_qp_#in56>  (32) 
22

>  <i_qp_#metab>  (32) 
7

>  <i_qp_#nonHatm>  (32) 
30

>  <i_qp_#noncon>  (32) 
0

>  <i_qp_#ringatoms>  (32) 
22

>  <i_qp_#rotor>  (32) 
8

>  <i_qp_#rtvFG>  (32) 
0

>  <i_qp_#stars>  (32) 
1

>  <i_qp_CNS>  (32) 
0

>  <i_qp_HumanOralAbsorption>  (32) 
3

>  <i_qp_RuleOfFive>  (32) 
0

>  <i_qp_RuleOfThree>  (32) 
1

>  <i_sd_BIOSOLVEIT.INFINISEE\_REAGENT1\_NAME>  (32) 
8289658

>  <i_sd_BIOSOLVEIT.INFINISEE\_REAGENT2\_NAME>  (32) 
8127862

>  <i_sd_BIOSOLVEIT.INFINISEE\_RESULT\_RANK>  (32) 
52567

>  <i_sd_version>  (32) 
0

>  <b_lp_Chiralities_Consistent>  (32) 
1

>  <b_sd_chiral_flag>  (32) 
0

>  <canonical_id>  (32) 
ATP-HTVS-49D68E9248AF

>  <compound_code>  (32) 
44739

>  <title>  (32) 
m_270004beb____8289658____8127862

>  <variant>  (32) 
44739-4

>  <source_file>  (32) 
运行/运行/ATP-VSW/ATP-VSW-DOCK_HTVS_1-003_lib/ATP-VSW-DOCK_HTVS_1-003_lib.mae

>  <canonical_smiles>  (32) 
NC(=O)[C@@H]([NH2+]Cc1cc(OCc2ccccc2)c2ccccc2c1)c1ccccc1

>  <scaffold>  (32) 
c1ccc(C[NH2+]Cc2cc(OCc3ccccc3)c3ccccc3c2)cc1

>  <molecular_formula>  (32) 
C26H25N2O2+

>  <acquisition_id_v2>  (32) 
ATP-ACQ2-0032

>  <selection_arm_v2>  (32) 
local_structure_bridge

>  <priority_v2>  (32) 
P1

$$$$
ATP-ACQ2-0033
     RDKit          3D

 55 58  0  0  0  0  0  0  0  0999 V2000
  196.5296  181.4353  157.2990 N   0  0  0  0  0  0  0  0  0  0  0  0
  196.0770  182.6165  157.9008 C   0  0  0  0  0  0  0  0  0  0  0  0
  196.9773  183.6456  157.5388 C   0  0  0  0  0  0  0  0  0  0  0  0
  197.9344  183.0311  156.7246 N   0  0  0  0  0  0  0  0  0  0  0  0
  197.6602  181.6968  156.5957 C   0  0  0  0  0  0  0  0  0  0  0  0
  198.4419  180.6912  155.8236 C   0  0  0  0  0  0  0  0  0  0  0  0
  199.3402  179.9113  156.6533 N   0  0  0  0  0  0  0  0  0  0  0  0
  199.8424  178.6836  156.2059 C   0  0  0  0  0  0  0  0  0  0  0  0
  200.5458  177.8796  157.1229 C   0  0  0  0  0  0  0  0  0  0  0  0
  201.0790  176.6401  156.7227 C   0  0  0  0  0  0  0  0  0  0  0  0
  200.9160  176.1843  155.3998 C   0  0  0  0  0  0  0  0  0  0  0  0
  201.4697  174.9422  155.0603 N   0  0  0  0  0  0  0  0  0  0  0  0
  201.3656  174.4058  153.7077 C   0  0  0  0  0  0  0  0  0  0  0  0
  201.6832  172.9048  153.6623 C   0  0  0  0  0  0  0  0  0  0  0  0
  203.0259  172.6371  154.1735 N   0  0  0  0  0  0  0  0  0  0  0  0
  200.2052  176.9874  154.4803 C   0  0  0  0  0  0  0  0  0  0  0  0
  199.6708  178.2252  154.8805 C   0  0  0  0  0  0  0  0  0  0  0  0
  199.0316  183.8431  156.1537 C   0  0  0  0  0  0  0  0  0  0  0  0
  198.6732  184.3940  154.7805 C   0  0  0  0  0  0  0  0  0  0  0  0
  198.1059  183.5565  153.7925 C   0  0  0  0  0  0  0  0  0  0  0  0
  197.7784  184.0629  152.5214 C   0  0  0  0  0  0  0  0  0  0  0  0
  198.0150  185.4171  152.2269 C   0  0  0  0  0  0  0  0  0  0  0  0
  198.5806  186.2577  153.2036 C   0  0  0  0  0  0  0  0  0  0  0  0
  198.9082  185.7512  154.4763 C   0  0  0  0  0  0  0  0  0  0  0  0
  196.8166  184.9687  157.9755 C   0  0  0  0  0  0  0  0  0  0  0  0
  195.7129  185.2326  158.8136 C   0  0  0  0  0  0  0  0  0  0  0  0
  194.8153  184.2065  159.1786 C   0  0  0  0  0  0  0  0  0  0  0  0
  194.9873  182.8776  158.7235 C   0  0  0  0  0  0  0  0  0  0  0  0
  203.1952  171.6005  154.1340 H   0  0  0  0  0  0  0  0  0  0  0  0
  203.1067  172.9327  155.1235 H   0  0  0  0  0  0  0  0  0  0  0  0
  197.7327  180.0482  155.3017 H   0  0  0  0  0  0  0  0  0  0  0  0
  199.0498  181.1931  155.0694 H   0  0  0  0  0  0  0  0  0  0  0  0
  199.4033  180.1419  157.6339 H   0  0  0  0  0  0  0  0  0  0  0  0
  200.6793  178.2087  158.1426 H   0  0  0  0  0  0  0  0  0  0  0  0
  201.6158  176.0394  157.4419 H   0  0  0  0  0  0  0  0  0  0  0  0
  201.9960  174.4447  155.7628 H   0  0  0  0  0  0  0  0  0  0  0  0
  200.3550  174.5674  153.3240 H   0  0  0  0  0  0  0  0  0  0  0  0
  202.0430  174.9608  153.0553 H   0  0  0  0  0  0  0  0  0  0  0  0
  200.9535  172.3515  154.2543 H   0  0  0  0  0  0  0  0  0  0  0  0
  201.6053  172.5412  152.6369 H   0  0  0  0  0  0  0  0  0  0  0  0
  200.0531  176.6761  153.4597 H   0  0  0  0  0  0  0  0  0  0  0  0
  199.1347  178.8074  154.1480 H   0  0  0  0  0  0  0  0  0  0  0  0
  199.2759  184.6589  156.8393 H   0  0  0  0  0  0  0  0  0  0  0  0
  199.9281  183.2278  156.0818 H   0  0  0  0  0  0  0  0  0  0  0  0
  197.9066  182.5155  153.9899 H   0  0  0  0  0  0  0  0  0  0  0  0
  197.3402  183.4068  151.7813 H   0  0  0  0  0  0  0  0  0  0  0  0
  197.7563  185.8069  151.2548 H   0  0  0  0  0  0  0  0  0  0  0  0
  198.7520  187.2980  152.9786 H   0  0  0  0  0  0  0  0  0  0  0  0
  199.3381  186.4076  155.2171 H   0  0  0  0  0  0  0  0  0  0  0  0
  197.4947  185.7680  157.6989 H   0  0  0  0  0  0  0  0  0  0  0  0
  195.5429  186.2383  159.1747 H   0  0  0  0  0  0  0  0  0  0  0  0
  193.9702  184.4500  159.8117 H   0  0  0  0  0  0  0  0  0  0  0  0
  194.2974  182.0987  159.0023 H   0  0  0  0  0  0  0  0  0  0  0  0
  203.7044  173.0997  153.6100 H   0  0  0  0  0  0  0  0  0  0  0  0
  196.1256  180.4885  157.3712 H   0  0  0  0  0  0  0  0  0  0  0  0
  1  2  1  0
  1  5  2  0
  1 55  1  0
  2  3  1  0
  2 28  2  0
  3  4  1  0
  3 25  2  0
  4  5  1  0
  4 18  1  0
  5  6  1  0
  6  7  1  0
  6 31  1  0
  6 32  1  0
  7  8  1  0
  7 33  1  0
  8  9  1  0
  8 17  2  0
  9 10  2  0
  9 34  1  0
 10 11  1  0
 10 35  1  0
 11 12  1  0
 11 16  2  0
 12 13  1  0
 12 36  1  0
 13 14  1  0
 13 37  1  0
 13 38  1  0
 14 15  1  0
 14 39  1  0
 14 40  1  0
 15 29  1  0
 15 30  1  0
 15 54  1  0
 16 17  1  0
 16 41  1  0
 17 42  1  0
 18 19  1  0
 18 43  1  0
 18 44  1  0
 19 20  2  0
 19 24  1  0
 20 21  1  0
 20 45  1  0
 21 22  2  0
 21 46  1  0
 22 23  1  0
 22 47  1  0
 23 24  2  0
 23 48  1  0
 24 49  1  0
 25 26  1  0
 25 50  1  0
 26 27  2  0
 26 51  1  0
 27 28  1  0
 27 52  1  0
 28 53  1  0
M  CHG  2   1   1  15   1
M  END
>  <s_epik_cmdline>  (33) 
J2VwaWtfcHl0aG9uJywgJy1waCcsICc3LjAwMDAwMCcsICctcGh0JywgJzIuMDAwMDAwJywgJy1tcycsICcxNicsICctdG4nLCAnOCcsICctbWEnLCAnMjAwJywgJy1pbWFlJywgJzxpbmZpbGUubWFlPicsICctb21hZScsICc8b3V0ZmlsZS5tYWU+Jw==

>  <s_epik_input>  (33) 
W2NIXTFbY0hdW2NIXVtjSF1bY0hdYzFbQ0gyXW4oYyhjMjMpW2NIXVtjSF1bY0hdW2NIXTMpYyhuMilbQ0gyXVtOSF1jNFtjSF1bY0hdYyhbY0hdW2NIXTQpW05IXVtDSDJdW0NIMl1bTkgyXQ==

>  <s_i_glide_gridfile>  (33) 
ATP-Grid

>  <s_lp_Force_Field>  (33) 
OPLS_2005

>  <s_lp_Variant>  (33) 
rxn102c____EMOL49832880____EMOL44693140-2

>  <s_lp_label>  (33) 
2809_sdstereoexpander_1_neutralizer_1_epik_2_stereoizer_1

>  <s_m_source_file>  (33) 
ATP-VSW-LIGPREP-003-in.maegz

>  <s_sd_BIOSOLVEIT.INFINISEE\_QUERY\_NAME>  (33) 
Ref-Lig

>  <s_sd_BIOSOLVEIT.INFINISEE\_QUERY\_SMILES>  (33) 
S(c1nc2c(cc1C[NH2+]Cc3ccc(cc3)C[NH+](C)C)cccc2)Cc4ccccc4

>  <s_sd_BIOSOLVEIT.INFINISEE\_REACTION\_NAME>  (33) 
rxn102c

>  <s_sd_BIOSOLVEIT.INFINISEE\_REAGENT1\_NAME>  (33) 
EMOL49832880

>  <s_sd_BIOSOLVEIT.INFINISEE\_REAGENT1\_SMILES>  (33) 
Clc1ccc(NCCN)cc1

>  <s_sd_BIOSOLVEIT.INFINISEE\_REAGENT2\_NAME>  (33) 
EMOL44693140

>  <s_sd_BIOSOLVEIT.INFINISEE\_REAGENT2\_SMILES>  (33) 
N=1c2c(N(C1CN)Cc3ccccc3)cccc2

>  <s_sd_BIOSOLVEIT.INFINISEE\_SPACE>  (33) 
eXplore_7tr_2022-12

>  <s_vsw_compound_code>  (33) 
89859

>  <s_vsw_variant>  (33) 
89859-2

>  <r_epik_Charging_Adjusted_Penalty>  (33) 
1.0420241013913401

>  <r_epik_Ionization_Penalty>  (33) 
0.52239999999999998

>  <r_epik_Ionization_Penalty_Charging>  (33) 
0.5212

>  <r_epik_Ionization_Penalty_Neutral>  (33) 
0.0011999999999999999

>  <r_epik_State_Penalty>  (33) 
0.52080000000000004

>  <r_i_docking_score>  (33) 
-5.7056666821813096

>  <r_i_glide_ecoul>  (33) 
-18.184394836425799

>  <r_i_glide_eff_state_penalty>  (33) 
0.52080000000000004

>  <r_i_glide_einternal>  (33) 
7.2092413902282697

>  <r_i_glide_emodel>  (33) 
-73.488104646289301

>  <r_i_glide_energy>  (33) 
-47.709484100341797

>  <r_i_glide_erotb>  (33) 
0.96976399640540101

>  <r_i_glide_esite>  (33) 
-0.333458695707333

>  <r_i_glide_evdw>  (33) 
-29.525089263916001

>  <r_i_glide_gscore>  (33) 
-6.2264666821813099

>  <r_i_glide_hbond>  (33) 
-0.338398861725901

>  <r_i_glide_ligand_efficiency>  (33) 
-0.20377381007790399

>  <r_i_glide_ligand_efficiency_ln>  (33) 
-1.31703539590068

>  <r_i_glide_ligand_efficiency_sa>  (33) 
-0.61877730375235096

>  <r_i_glide_lipo>  (33) 
-1.0079183870392601

>  <r_i_glide_metal>  (33) 
-0

>  <r_i_glide_rewards>  (33) 
-1.3125410454545401

>  <r_lp_Energy>  (33) 
22.119392000000001

>  <r_qp_ACxDN^.5/SA>  (33) 
0.0127454

>  <r_qp_CIQPlogS>  (33) 
-4.8550000000000004

>  <r_qp_EA(eV)>  (33) 
0.29399999999999998

>  <r_qp_FISA>  (33) 
112.596

>  <r_qp_FOSA>  (33) 
135.60499999999999

>  <r_qp_IP(eV)>  (33) 
7.4359999999999999

>  <r_qp_Jm>  (33) 
0.0146129412720679

>  <r_qp_PISA>  (33) 
457.93400000000003

>  <r_qp_PSA>  (33) 
67.310000000000002

>  <r_qp_PercentHumanOralAbsorption>  (33) 
91.119

>  <r_qp_QPPCaco>  (33) 
211.37200000000001

>  <r_qp_QPPMDCK>  (33) 
102.02

>  <r_qp_QPlogBB>  (33) 
-0.76900000000000002

>  <r_qp_QPlogHERG>  (33) 
-7.7649999999999997

>  <r_qp_QPlogKhsa>  (33) 
0.47399999999999998

>  <r_qp_QPlogKp>  (33) 
-3.1800000000000002

>  <r_qp_QPlogPC16>  (33) 
14.808999999999999

>  <r_qp_QPlogPo/w>  (33) 
3.8530000000000002

>  <r_qp_QPlogPoct>  (33) 
22.507999999999999

>  <r_qp_QPlogPw>  (33) 
13.605

>  <r_qp_QPlogS>  (33) 
-4.2249999999999996

>  <r_qp_QPpolrz>  (33) 
42.456000000000003

>  <r_qp_SASA>  (33) 
706.13599999999997

>  <r_qp_SAamideO>  (33) 
0

>  <r_qp_SAfluorine>  (33) 
0

>  <r_qp_WPSA>  (33) 
0

>  <r_qp_accptHB>  (33) 
4.5

>  <r_qp_dip^2/V>  (33) 
0.015996699999999999

>  <r_qp_dipole>  (33) 
4.4710000000000001

>  <r_qp_donorHB>  (33) 
4

>  <r_qp_glob>  (33) 
0.79462880000000002

>  <r_qp_mol_MW>  (33) 
371.48399999999998

>  <r_qp_volume>  (33) 
1249.7729999999999

>  <r_sd_BIOSOLVEIT.INFINISEE\_FTREES\_SIMILARITY>  (33) 
0.90600000000000003

>  <r_sd_BIOSOLVEIT.LOGP>  (33) 
3.3504999999999998

>  <r_sd_BIOSOLVEIT.MOLECULAR\_WEIGHT>  (33) 
372.49299999999999

>  <r_sd_BIOSOLVEIT.TPSA>  (33) 
69.519999999999996

>  <i_epik_Tot_Q>  (33) 
2

>  <i_epik_Tot_abs_Q>  (33) 
2

>  <i_f3d_flags>  (33) 
0

>  <i_i_glide_confnum>  (33) 
4

>  <i_i_glide_lignum>  (33) 
1341

>  <i_i_glide_posenum>  (33) 
19

>  <i_i_glide_rotatable_bonds>  (33) 
8

>  <i_lp_mmshare_version>  (33) 
65135

>  <i_m_ct_format>  (33) 
2

>  <i_m_source_file_index>  (33) 
2809

>  <i_qp_#NandO>  (33) 
5

>  <i_qp_#acid>  (33) 
0

>  <i_qp_#amide>  (33) 
0

>  <i_qp_#amidine>  (33) 
0

>  <i_qp_#amine>  (33) 
1

>  <i_qp_#in34>  (33) 
0

>  <i_qp_#in56>  (33) 
21

>  <i_qp_#metab>  (33) 
9

>  <i_qp_#nonHatm>  (33) 
28

>  <i_qp_#noncon>  (33) 
0

>  <i_qp_#ringatoms>  (33) 
21

>  <i_qp_#rotor>  (33) 
9

>  <i_qp_#rtvFG>  (33) 
0

>  <i_qp_#stars>  (33) 
3

>  <i_qp_CNS>  (33) 
-1

>  <i_qp_HumanOralAbsorption>  (33) 
3

>  <i_qp_RuleOfFive>  (33) 
0

>  <i_qp_RuleOfThree>  (33) 
1

>  <i_sd_BIOSOLVEIT.INFINISEE\_RESULT\_RANK>  (33) 
64392

>  <i_sd_version>  (33) 
0

>  <b_lp_Chiralities_Consistent>  (33) 
1

>  <b_sd_chiral_flag>  (33) 
0

>  <canonical_id>  (33) 
ATP-HTVS-EB0B96E798C5

>  <compound_code>  (33) 
89859

>  <title>  (33) 
rxn102c____EMOL49832880____EMOL44693140

>  <variant>  (33) 
89859-2

>  <source_file>  (33) 
运行/运行/ATP-VSW/ATP-VSW-DOCK_HTVS_1-003_lib/ATP-VSW-DOCK_HTVS_1-003_lib.mae

>  <canonical_smiles>  (33) 
[NH3+]CCNc1ccc(NCc2[nH+]c3ccccc3n2Cc2ccccc2)cc1

>  <scaffold>  (33) 
c1ccc(Cn2c(CNc3ccccc3)[nH+]c3ccccc32)cc1

>  <molecular_formula>  (33) 
C23H27N5+2

>  <acquisition_id_v2>  (33) 
ATP-ACQ2-0033

>  <selection_arm_v2>  (33) 
scaffold_score_exploration

>  <priority_v2>  (33) 
P1

$$$$
ATP-ACQ2-0034
     RDKit          3D

 52 55  0  0  0  0  0  0  0  0999 V2000
  200.3656  177.1169  158.5160 F   0  0  0  0  0  0  0  0  0  0  0  0
  200.6777  177.0398  157.1996 C   0  0  0  0  0  0  0  0  0  0  0  0
  201.5439  176.0263  156.7388 C   0  0  0  0  0  0  0  0  0  0  0  0
  201.8882  175.9548  155.3808 C   0  0  0  0  0  0  0  0  0  0  0  0
  202.7143  174.9802  154.9425 F   0  0  0  0  0  0  0  0  0  0  0  0
  201.3785  176.9062  154.4781 C   0  0  0  0  0  0  0  0  0  0  0  0
  200.4979  177.9113  154.9257 C   0  0  0  0  0  0  0  0  0  0  0  0
  200.1466  177.9801  156.2930 C   0  0  0  0  0  0  0  0  0  0  0  0
  199.9611  178.9076  153.9484 C   0  0  0  0  0  0  0  0  0  0  0  0
  200.7171  179.5152  153.1931 O   0  0  0  0  0  0  0  0  0  0  0  0
  198.6224  179.0324  153.9296 N   0  0  0  0  0  0  0  0  0  0  0  0
  197.8829  179.6634  152.8834 C   0  0  0  0  0  0  0  0  0  0  0  0
  197.0889  180.8033  153.1411 C   0  0  0  0  0  0  0  0  0  0  0  0
  196.9884  181.3522  154.4682 C   0  0  0  0  0  0  0  0  0  0  0  0
  196.9277  181.7045  155.6327 C   0  0  0  0  0  0  0  0  0  0  0  0
  196.9106  182.1179  157.0183 C   0  0  0  0  0  0  0  0  0  0  0  0
  195.5463  181.8676  157.5094 N   0  0  0  0  0  0  0  0  0  0  0  0
  195.3239  182.1145  158.9444 C   0  0  0  0  0  0  0  0  0  0  0  0
  195.7263  183.5200  159.3712 C   0  0  0  0  0  0  0  0  0  0  0  0
  197.0995  183.8631  159.4927 C   0  0  0  0  0  0  0  0  0  0  0  0
  197.4818  185.1797  159.7379 C   0  0  0  0  0  0  0  0  0  0  0  0
  196.5079  186.1644  160.0059 C   0  0  0  0  0  0  0  0  0  0  0  0
  195.1466  185.8213  159.9584 C   0  0  0  0  0  0  0  0  0  0  0  0
  194.7542  184.5078  159.6288 C   0  0  0  0  0  0  0  0  0  0  0  0
  196.3559  181.3928  152.0964 C   0  0  0  0  0  0  0  0  0  0  0  0
  196.3496  180.9014  150.8453 N   0  0  0  0  0  0  0  0  0  0  0  0
  197.0727  179.7938  150.5802 C   0  0  0  0  0  0  0  0  0  0  0  0
  197.8537  179.1295  151.5689 C   0  0  0  0  0  0  0  0  0  0  0  0
  198.5649  177.9518  151.2259 C   0  0  0  0  0  0  0  0  0  0  0  0
  198.5260  177.4489  149.9196 C   0  0  0  0  0  0  0  0  0  0  0  0
  197.7611  178.1001  148.9390 C   0  0  0  0  0  0  0  0  0  0  0  0
  197.0385  179.2589  149.2768 C   0  0  0  0  0  0  0  0  0  0  0  0
  194.8806  182.3817  156.9474 H   0  0  0  0  0  0  0  0  0  0  0  0
  201.9431  175.2939  157.4187 H   0  0  0  0  0  0  0  0  0  0  0  0
  201.6469  176.8428  153.4336 H   0  0  0  0  0  0  0  0  0  0  0  0
  199.4716  178.7421  156.6605 H   0  0  0  0  0  0  0  0  0  0  0  0
  198.0938  178.5730  154.6585 H   0  0  0  0  0  0  0  0  0  0  0  0
  197.6393  181.5284  157.5768 H   0  0  0  0  0  0  0  0  0  0  0  0
  197.1802  183.1769  157.0199 H   0  0  0  0  0  0  0  0  0  0  0  0
  194.2637  181.9540  159.1635 H   0  0  0  0  0  0  0  0  0  0  0  0
  195.8715  181.3789  159.5385 H   0  0  0  0  0  0  0  0  0  0  0  0
  197.8677  183.1111  159.3385 H   0  0  0  0  0  0  0  0  0  0  0  0
  198.5350  185.4381  159.7571 H   0  0  0  0  0  0  0  0  0  0  0  0
  196.8130  187.1810  160.2263 H   0  0  0  0  0  0  0  0  0  0  0  0
  194.3912  186.5731  160.1411 H   0  0  0  0  0  0  0  0  0  0  0  0
  193.6974  184.2711  159.5403 H   0  0  0  0  0  0  0  0  0  0  0  0
  195.7473  182.2698  152.2733 H   0  0  0  0  0  0  0  0  0  0  0  0
  199.1516  177.4104  151.9525 H   0  0  0  0  0  0  0  0  0  0  0  0
  199.0885  176.5585  149.6769 H   0  0  0  0  0  0  0  0  0  0  0  0
  197.7310  177.7075  147.9338 H   0  0  0  0  0  0  0  0  0  0  0  0
  196.4411  179.7532  148.5314 H   0  0  0  0  0  0  0  0  0  0  0  0
  195.3581  180.8602  157.3614 H   0  0  0  0  0  0  0  0  0  0  0  0
  1  2  1  0
  2  3  1  0
  2  8  2  0
  3  4  2  0
  3 34  1  0
  4  5  1  0
  4  6  1  0
  6  7  2  0
  6 35  1  0
  7  8  1  0
  7  9  1  0
  8 36  1  0
  9 10  2  0
  9 11  1  0
 11 12  1  0
 11 37  1  0
 12 13  2  0
 12 28  1  0
 13 14  1  0
 13 25  1  0
 14 15  3  0
 15 16  1  0
 16 17  1  0
 16 38  1  0
 16 39  1  0
 17 18  1  0
 17 33  1  0
 17 52  1  0
 18 19  1  0
 18 40  1  0
 18 41  1  0
 19 20  2  0
 19 24  1  0
 20 21  1  0
 20 42  1  0
 21 22  2  0
 21 43  1  0
 22 23  1  0
 22 44  1  0
 23 24  2  0
 23 45  1  0
 24 46  1  0
 25 26  2  0
 25 47  1  0
 26 27  1  0
 27 28  1  0
 27 32  2  0
 28 29  2  0
 29 30  1  0
 29 48  1  0
 30 31  2  0
 30 49  1  0
 31 32  1  0
 31 50  1  0
 32 51  1  0
M  CHG  1  17   1
M  END
>  <s_epik_cmdline>  (34) 
J2VwaWtfcHl0aG9uJywgJy1waCcsICc3LjAwMDAwMCcsICctcGh0JywgJzIuMDAwMDAwJywgJy1tcycsICcxNicsICctdG4nLCAnOCcsICctbWEnLCAnMjAwJywgJy1pbWFlJywgJzxpbmZpbGUubWFlPicsICctb21hZScsICc8b3V0ZmlsZS5tYWU+Jw==

>  <s_epik_input>  (34) 
RmMxW2NIXWMoRilbY0hdYyhbY0hdMSlDKD1PKVtOSF1jKGMoYzIzKVtjSF1bY0hdW2NIXVtjSF0zKWMoW2NIXW4yKUMjQ1tDSDJdW05IXVtDSDJdYzRbY0hdW2NIXVtjSF1bY0hdW2NIXTQ=

>  <s_i_glide_gridfile>  (34) 
ATP-Grid

>  <s_lp_Force_Field>  (34) 
OPLS_2005

>  <s_lp_Variant>  (34) 
rxn503b____EMOL495084____EMOL13728749____EMOL1197208-2

>  <s_lp_label>  (34) 
2568_sdstereoexpander_1_neutralizer_1_epik_2_stereoizer_1

>  <s_m_source_file>  (34) 
ATP-VSW-LIGPREP-002-in.maegz

>  <s_sd_BIOSOLVEIT.INFINISEE\_QUERY\_NAME>  (34) 
Ref-Lig

>  <s_sd_BIOSOLVEIT.INFINISEE\_QUERY\_SMILES>  (34) 
S(c1nc2c(cc1C[NH2+]Cc3ccc(cc3)C[NH+](C)C)cccc2)Cc4ccccc4

>  <s_sd_BIOSOLVEIT.INFINISEE\_REACTION\_NAME>  (34) 
rxn503b

>  <s_sd_BIOSOLVEIT.INFINISEE\_REAGENT1\_NAME>  (34) 
EMOL495084

>  <s_sd_BIOSOLVEIT.INFINISEE\_REAGENT1\_SMILES>  (34) 
Fc1cc(F)cc(c1)C(=O)O

>  <s_sd_BIOSOLVEIT.INFINISEE\_REAGENT2\_NAME>  (34) 
EMOL13728749

>  <s_sd_BIOSOLVEIT.INFINISEE\_REAGENT2\_SMILES>  (34) 
Brc1c(N)c2c(nc1)cccc2

>  <s_sd_BIOSOLVEIT.INFINISEE\_REAGENT3\_NAME>  (34) 
EMOL1197208

>  <s_sd_BIOSOLVEIT.INFINISEE\_REAGENT3\_SMILES>  (34) 
N(CC#C)Cc1ccccc1

>  <s_sd_BIOSOLVEIT.INFINISEE\_SPACE>  (34) 
eXplore_7tr_2022-12

>  <s_vsw_compound_code>  (34) 
82146

>  <s_vsw_variant>  (34) 
82146-2

>  <r_epik_Charging_Adjusted_Penalty>  (34) 
1.1385280302167899

>  <r_epik_Ionization_Penalty>  (34) 
0.5696

>  <r_epik_Ionization_Penalty_Charging>  (34) 
0.56859999999999999

>  <r_epik_Ionization_Penalty_Neutral>  (34) 
0.001

>  <r_epik_State_Penalty>  (34) 
0.56989999999999996

>  <r_i_docking_score>  (34) 
-6.2034938001133799

>  <r_i_glide_ecoul>  (34) 
-10.9487771987915

>  <r_i_glide_eff_state_penalty>  (34) 
0.56989999999999996

>  <r_i_glide_einternal>  (34) 
5.8570790290832502

>  <r_i_glide_emodel>  (34) 
-81.367839183408606

>  <r_i_glide_energy>  (34) 
-52.575402259826703

>  <r_i_glide_erotb>  (34) 
0.75745006455500097

>  <r_i_glide_esite>  (34) 
-0.16689590415101699

>  <r_i_glide_evdw>  (34) 
-41.626625061035199

>  <r_i_glide_gscore>  (34) 
-6.7733938001133804

>  <r_i_glide_hbond>  (34) 
-0.40000000000000002

>  <r_i_glide_ligand_efficiency>  (34) 
-0.19385918125354301

>  <r_i_glide_ligand_efficiency_ln>  (34) 
-1.3891313626997499

>  <r_i_glide_ligand_efficiency_sa>  (34) 
-0.61546453580012395

>  <r_i_glide_lipo>  (34) 
-2.36521375613184

>  <r_i_glide_metal>  (34) 
-0

>  <r_i_glide_rewards>  (34) 
-0.87508637151504098

>  <r_lp_Energy>  (34) 
25.034099999999999

>  <r_qp_ACxDN^.5/SA>  (34) 
0.010457599999999999

>  <r_qp_CIQPlogS>  (34) 
-6.0960000000000001

>  <r_qp_EA(eV)>  (34) 
1.2949999999999999

>  <r_qp_FISA>  (34) 
58.572000000000003

>  <r_qp_FOSA>  (34) 
87.986999999999995

>  <r_qp_IP(eV)>  (34) 
8.9860000000000007

>  <r_qp_Jm>  (34) 
0.044078122977231099

>  <r_qp_PISA>  (34) 
457.63200000000001

>  <r_qp_PSA>  (34) 
58.985999999999997

>  <r_qp_PercentHumanOralAbsorption>  (34) 
100

>  <r_qp_QPPCaco>  (34) 
687.63400000000001

>  <r_qp_QPPMDCK>  (34) 
905.08299999999997

>  <r_qp_QPlogBB>  (34) 
0.161

>  <r_qp_QPlogHERG>  (34) 
-7.0640000000000001

>  <r_qp_QPlogKhsa>  (34) 
0.748

>  <r_qp_QPlogKp>  (34) 
-2.3769999999999998

>  <r_qp_QPlogPC16>  (34) 
13.611000000000001

>  <r_qp_QPlogPo/w>  (34) 
4.8739999999999997

>  <r_qp_QPlogPoct>  (34) 
20.882999999999999

>  <r_qp_QPlogPw>  (34) 
11.193

>  <r_qp_QPlogS>  (34) 
-4.609

>  <r_qp_QPpolrz>  (34) 
44.465000000000003

>  <r_qp_SASA>  (34) 
676.16300000000001

>  <r_qp_SAamideO>  (34) 
0

>  <r_qp_SAfluorine>  (34) 
71.971000000000004

>  <r_qp_WPSA>  (34) 
71.971000000000004

>  <r_qp_accptHB>  (34) 
5

>  <r_qp_dip^2/V>  (34) 
0.0135278

>  <r_qp_dipole>  (34) 
4.1420000000000003

>  <r_qp_donorHB>  (34) 
2

>  <r_qp_glob>  (34) 
0.83787650000000002

>  <r_qp_mol_MW>  (34) 
427.452

>  <r_qp_volume>  (34) 
1267.941

>  <r_sd_BIOSOLVEIT.INFINISEE\_FTREES\_SIMILARITY>  (34) 
0.91200000000000003

>  <r_sd_BIOSOLVEIT.LOGP>  (34) 
3.8803999999999998

>  <r_sd_BIOSOLVEIT.MOLECULAR\_WEIGHT>  (34) 
428.45999999999998

>  <r_sd_BIOSOLVEIT.TPSA>  (34) 
58.600000000000001

>  <i_epik_Tot_Q>  (34) 
1

>  <i_epik_Tot_abs_Q>  (34) 
1

>  <i_f3d_flags>  (34) 
0

>  <i_i_glide_confnum>  (34) 
10

>  <i_i_glide_lignum>  (34) 
1143

>  <i_i_glide_posenum>  (34) 
3

>  <i_i_glide_rotatable_bonds>  (34) 
8

>  <i_lp_mmshare_version>  (34) 
65135

>  <i_m_ct_format>  (34) 
2

>  <i_m_source_file_index>  (34) 
2568

>  <i_qp_#NandO>  (34) 
4

>  <i_qp_#acid>  (34) 
0

>  <i_qp_#amide>  (34) 
0

>  <i_qp_#amidine>  (34) 
0

>  <i_qp_#amine>  (34) 
1

>  <i_qp_#in34>  (34) 
0

>  <i_qp_#in56>  (34) 
22

>  <i_qp_#metab>  (34) 
4

>  <i_qp_#nonHatm>  (34) 
32

>  <i_qp_#noncon>  (34) 
0

>  <i_qp_#ringatoms>  (34) 
22

>  <i_qp_#rotor>  (34) 
7

>  <i_qp_#rtvFG>  (34) 
0

>  <i_qp_#stars>  (34) 
1

>  <i_qp_CNS>  (34) 
1

>  <i_qp_HumanOralAbsorption>  (34) 
3

>  <i_qp_RuleOfFive>  (34) 
0

>  <i_qp_RuleOfThree>  (34) 
0

>  <i_sd_BIOSOLVEIT.INFINISEE\_RESULT\_RANK>  (34) 
37658

>  <i_sd_version>  (34) 
0

>  <b_lp_Chiralities_Consistent>  (34) 
1

>  <b_sd_chiral_flag>  (34) 
0

>  <canonical_id>  (34) 
ATP-HTVS-D1462A8BE621

>  <compound_code>  (34) 
82146

>  <title>  (34) 
rxn503b____EMOL495084____EMOL13728749____EMOL1197208

>  <variant>  (34) 
82146-2

>  <source_file>  (34) 
运行/运行/ATP-VSW/ATP-VSW-DOCK_HTVS_1-002_lib.maegz

>  <canonical_smiles>  (34) 
O=C(Nc1c(C#CC[NH2+]Cc2ccccc2)cnc2ccccc12)c1cc(F)cc(F)c1

>  <scaffold>  (34) 
O=C(Nc1c(C#CC[NH2+]Cc2ccccc2)cnc2ccccc12)c1ccccc1

>  <molecular_formula>  (34) 
C26H20F2N3O+

>  <acquisition_id_v2>  (34) 
ATP-ACQ2-0034

>  <selection_arm_v2>  (34) 
exploitation

>  <priority_v2>  (34) 
P1

$$$$
ATP-ACQ2-0035
     RDKit          3D

 63 67  0  0  0  0  0  0  0  0999 V2000
  202.8688  174.5434  155.6799 N   0  0  0  0  0  0  0  0  0  0  0  0
  202.1610  175.5312  155.0851 C   0  0  0  0  0  0  0  0  0  0  0  0
  201.3418  175.3511  153.9483 C   0  0  0  0  0  0  0  0  0  0  0  0
  201.3110  174.0587  153.3798 C   0  0  0  0  0  0  0  0  0  0  0  0
  202.0610  173.0251  153.9774 C   0  0  0  0  0  0  0  0  0  0  0  0
  202.8107  173.3140  155.1323 C   0  0  0  0  0  0  0  0  0  0  0  0
  200.5561  176.4540  153.3722 C   0  0  0  0  0  0  0  0  0  0  0  0
  200.2970  176.4312  152.0736 N   0  0  0  0  0  0  0  0  0  0  0  0
  199.5685  177.5344  151.8044 N   0  0  0  0  0  0  0  0  0  0  0  0
  199.1078  177.8158  150.4830 C   0  0  0  0  0  0  0  0  0  0  0  0
  198.7244  179.1304  150.1268 C   0  0  0  0  0  0  0  0  0  0  0  0
  198.2831  179.4214  148.8202 C   0  0  0  0  0  0  0  0  0  0  0  0
  198.2140  178.3990  147.8555 C   0  0  0  0  0  0  0  0  0  0  0  0
  198.5838  177.0841  148.1984 C   0  0  0  0  0  0  0  0  0  0  0  0
  199.0286  176.7934  149.5056 C   0  0  0  0  0  0  0  0  0  0  0  0
  199.3598  178.2544  152.9569 C   0  0  0  0  0  0  0  0  0  0  0  0
  199.9507  177.5885  154.0004 C   0  0  0  0  0  0  0  0  0  0  0  0
  199.8992  177.9787  155.4523 C   0  0  0  0  0  0  0  0  0  0  0  0
  200.2274  179.4030  155.5992 N   0  0  0  0  0  0  0  0  0  0  0  0
  199.8132  179.9839  156.8873 C   0  0  0  0  0  0  0  0  0  0  0  0
  200.1789  181.4603  156.9334 C   0  0  0  0  0  0  0  0  0  0  0  0
  199.2307  182.5059  156.7767 C   0  0  0  0  0  0  0  0  0  0  0  0
  199.6723  183.8514  156.8307 C   0  0  0  0  0  0  0  0  0  0  0  0
  201.0221  184.1620  157.0717 C   0  0  0  0  0  0  0  0  0  0  0  0
  201.9596  183.1268  157.2250 C   0  0  0  0  0  0  0  0  0  0  0  0
  201.5370  181.7847  157.1532 C   0  0  0  0  0  0  0  0  0  0  0  0
  197.7314  182.2640  156.5910 C   0  0  0  0  0  0  0  0  0  0  0  0
  196.9905  182.3119  157.8939 N   0  0  0  0  0  0  0  0  0  0  0  0
  197.2071  183.5302  158.6944 C   0  0  0  0  0  0  0  0  0  0  0  0
  196.0830  183.5121  159.7337 C   0  0  0  0  0  0  0  0  0  0  0  0
  194.9844  182.6507  159.1078 C   0  0  0  0  0  0  0  0  0  0  0  0
  195.5400  182.2378  157.7384 C   0  0  0  0  0  0  0  0  0  0  0  0
  201.2240  179.5218  155.4942 H   0  0  0  0  0  0  0  0  0  0  0  0
  202.2725  176.5107  155.5394 H   0  0  0  0  0  0  0  0  0  0  0  0
  200.7322  173.8439  152.4940 H   0  0  0  0  0  0  0  0  0  0  0  0
  202.0681  172.0281  153.5557 H   0  0  0  0  0  0  0  0  0  0  0  0
  203.3906  172.5395  155.6196 H   0  0  0  0  0  0  0  0  0  0  0  0
  198.7827  179.9364  150.8427 H   0  0  0  0  0  0  0  0  0  0  0  0
  198.0109  180.4330  148.5551 H   0  0  0  0  0  0  0  0  0  0  0  0
  197.8864  178.6223  146.8511 H   0  0  0  0  0  0  0  0  0  0  0  0
  198.5339  176.2998  147.4559 H   0  0  0  0  0  0  0  0  0  0  0  0
  199.3128  175.7793  149.7471 H   0  0  0  0  0  0  0  0  0  0  0  0
  198.7673  179.1550  152.9453 H   0  0  0  0  0  0  0  0  0  0  0  0
  198.9074  177.7809  155.8568 H   0  0  0  0  0  0  0  0  0  0  0  0
  200.6111  177.4235  156.0840 H   0  0  0  0  0  0  0  0  0  0  0  0
  198.7518  179.8155  157.0477 H   0  0  0  0  0  0  0  0  0  0  0  0
  200.3204  179.4612  157.6955 H   0  0  0  0  0  0  0  0  0  0  0  0
  198.9720  184.6678  156.7378 H   0  0  0  0  0  0  0  0  0  0  0  0
  201.3358  185.1919  157.1519 H   0  0  0  0  0  0  0  0  0  0  0  0
  202.9997  183.3604  157.4036 H   0  0  0  0  0  0  0  0  0  0  0  0
  202.2694  181.0007  157.2760 H   0  0  0  0  0  0  0  0  0  0  0  0
  197.3528  183.0226  155.9106 H   0  0  0  0  0  0  0  0  0  0  0  0
  197.5246  181.3090  156.0866 H   0  0  0  0  0  0  0  0  0  0  0  0
  198.1872  183.5794  159.1705 H   0  0  0  0  0  0  0  0  0  0  0  0
  197.0750  184.4108  158.0704 H   0  0  0  0  0  0  0  0  0  0  0  0
  196.4451  183.0560  160.6543 H   0  0  0  0  0  0  0  0  0  0  0  0
  195.7490  184.5219  159.9826 H   0  0  0  0  0  0  0  0  0  0  0  0
  194.8077  181.7705  159.7258 H   0  0  0  0  0  0  0  0  0  0  0  0
  194.0388  183.1842  159.0084 H   0  0  0  0  0  0  0  0  0  0  0  0
  195.2162  182.9594  156.9959 H   0  0  0  0  0  0  0  0  0  0  0  0
  195.1856  181.2524  157.4205 H   0  0  0  0  0  0  0  0  0  0  0  0
  197.2632  181.5291  158.4596 H   0  0  0  0  0  0  0  0  0  0  0  0
  199.7842  179.9231  154.8609 H   0  0  0  0  0  0  0  0  0  0  0  0
  1  2  1  0
  1  6  2  0
  2  3  2  0
  2 34  1  0
  3  4  1  0
  3  7  1  0
  4  5  2  0
  4 35  1  0
  5  6  1  0
  5 36  1  0
  6 37  1  0
  7  8  2  0
  7 17  1  0
  8  9  1  0
  9 10  1  0
  9 16  1  0
 10 11  2  0
 10 15  1  0
 11 12  1  0
 11 38  1  0
 12 13  2  0
 12 39  1  0
 13 14  1  0
 13 40  1  0
 14 15  2  0
 14 41  1  0
 15 42  1  0
 16 17  2  0
 16 43  1  0
 17 18  1  0
 18 19  1  0
 18 44  1  0
 18 45  1  0
 19 20  1  0
 19 33  1  0
 19 63  1  0
 20 21  1  0
 20 46  1  0
 20 47  1  0
 21 22  1  0
 21 26  2  0
 22 23  2  0
 22 27  1  0
 23 24  1  0
 23 48  1  0
 24 25  2  0
 24 49  1  0
 25 26  1  0
 25 50  1  0
 26 51  1  0
 27 28  1  0
 27 52  1  0
 27 53  1  0
 28 29  1  0
 28 32  1  0
 28 62  1  0
 29 30  1  0
 29 54  1  0
 29 55  1  0
 30 31  1  0
 30 56  1  0
 30 57  1  0
 31 32  1  0
 31 58  1  0
 31 59  1  0
 32 60  1  0
 32 61  1  0
M  CHG  2  19   1  28   1
M  END
>  <s_epik_cmdline>  (35) 
J2VwaWtfcHl0aG9uJywgJy1waCcsICc3LjAwMDAwMCcsICctcGh0JywgJzIuMDAwMDAwJywgJy1tcycsICcxNicsICctdG4nLCAnOCcsICctbWEnLCAnMjAwJywgJy1pbWFlJywgJzxpbmZpbGUubWFlPicsICctb21hZScsICc8b3V0ZmlsZS5tYWU+Jw==

>  <s_epik_input>  (35) 
W2NIXTFbY0hdW2NIXW5bY0hdYzEtYzJubigtYzNbY0hdW2NIXVtjSF1bY0hdW2NIXTMpW2NIXWMyW0NIMl1bTkhdW0NIMl1jNGMoW2NIXVtjSF1bY0hdW2NIXTQpW0NIMl1ONVtDSDJdW0NIMl1bQ0gyXVtDSDJdNQ==

>  <s_i_glide_gridfile>  (35) 
ATP-Grid

>  <s_lp_Force_Field>  (35) 
OPLS_2005

>  <s_lp_Variant>  (35) 
m_270004bbb____24793076____7547738-1

>  <s_lp_label>  (35) 
1194_sdstereoexpander_1_neutralizer_1_epik_1_stereoizer_1

>  <s_m_source_file>  (35) 
ATP-VSW-LIGPREP-003-in.maegz

>  <s_sd_BIOSOLVEIT.INFINISEE\_QUERY\_NAME>  (35) 
Ref-Lig

>  <s_sd_BIOSOLVEIT.INFINISEE\_QUERY\_SMILES>  (35) 
S(c1nc2c(cc1C[NH2+]Cc3ccc(cc3)C[NH+](C)C)cccc2)Cc4ccccc4

>  <s_sd_BIOSOLVEIT.INFINISEE\_REACTION\_NAME>  (35) 
m_270004bbb

>  <s_sd_BIOSOLVEIT.INFINISEE\_REAGENT1\_SMILES>  (35) 
[R1*]NCc1c(cccc1)CN2CCCC2

>  <s_sd_BIOSOLVEIT.INFINISEE\_REAGENT2\_SMILES>  (35) 
[R1*]CC=1C(=NN(c2ccccc2)C1)c3cnccc3

>  <s_sd_BIOSOLVEIT.INFINISEE\_SPACE>  (35) 
REALSpace_44bn_2023-08

>  <s_vsw_compound_code>  (35) 
38179

>  <s_vsw_variant>  (35) 
38179-1

>  <r_epik_Charging_Adjusted_Penalty>  (35) 
0.26911473279213699

>  <r_epik_Ionization_Penalty>  (35) 
0.1389

>  <r_epik_Ionization_Penalty_Charging>  (35) 
0.1358

>  <r_epik_Ionization_Penalty_Neutral>  (35) 
0.0030999999999999999

>  <r_epik_State_Penalty>  (35) 
0.1333

>  <r_i_docking_score>  (35) 
-4.1219980049364304

>  <r_i_glide_ecoul>  (35) 
-12.2842054367065

>  <r_i_glide_eff_state_penalty>  (35) 
0.1333

>  <r_i_glide_einternal>  (35) 
3.4927306175231898

>  <r_i_glide_emodel>  (35) 
-62.014341874127403

>  <r_i_glide_energy>  (35) 
-44.902010917663603

>  <r_i_glide_erotb>  (35) 
0.87630884457119895

>  <r_i_glide_esite>  (35) 
-0.069985242872294795

>  <r_i_glide_evdw>  (35) 
-32.617805480957003

>  <r_i_glide_gscore>  (35) 
-4.2552980049364297

>  <r_i_glide_hbond>  (35) 
0

>  <r_i_glide_ligand_efficiency>  (35) 
-0.12881243765426301

>  <r_i_glide_ligand_efficiency_ln>  (35) 
-0.92302771472719702

>  <r_i_glide_ligand_efficiency_sa>  (35) 
-0.40895399760548901

>  <r_i_glide_lipo>  (35) 
-1.0279258330656

>  <r_i_glide_metal>  (35) 
-0

>  <r_i_glide_rewards>  (35) 
-0.56017468401590098

>  <r_lp_Energy>  (35) 
43.261575999999998

>  <r_lp_tautomer_probability>  (35) 
1

>  <r_qp_ACxDN^.5/SA>  (35) 
0.0080780000000000001

>  <r_qp_CIQPlogS>  (35) 
-4.7489999999999997

>  <r_qp_EA(eV)>  (35) 
0.64900000000000002

>  <r_qp_FISA>  (35) 
17.949000000000002

>  <r_qp_FOSA>  (35) 
215.726

>  <r_qp_IP(eV)>  (35) 
8.8219999999999992

>  <r_qp_Jm>  (35) 
0.0075843755674513801

>  <r_qp_PISA>  (35) 
509.07999999999998

>  <r_qp_PSA>  (35) 
41.192999999999998

>  <r_qp_PercentHumanOralAbsorption>  (35) 
100

>  <r_qp_QPPCaco>  (35) 
416.38200000000001

>  <r_qp_QPPMDCK>  (35) 
234.869

>  <r_qp_QPlogBB>  (35) 
0.81699999999999995

>  <r_qp_QPlogHERG>  (35) 
-8.4770000000000003

>  <r_qp_QPlogKhsa>  (35) 
0.95599999999999996

>  <r_qp_QPlogKp>  (35) 
-3.6059999999999999

>  <r_qp_QPlogPC16>  (35) 
15.07

>  <r_qp_QPlogPo/w>  (35) 
4.9109999999999996

>  <r_qp_QPlogPoct>  (35) 
21.452000000000002

>  <r_qp_QPlogPw>  (35) 
11.143000000000001

>  <r_qp_QPlogS>  (35) 
-4.141

>  <r_qp_QPpolrz>  (35) 
50.442

>  <r_qp_SASA>  (35) 
742.75599999999997

>  <r_qp_SAamideO>  (35) 
0

>  <r_qp_SAfluorine>  (35) 
0

>  <r_qp_WPSA>  (35) 
0

>  <r_qp_accptHB>  (35) 
6

>  <r_qp_dip^2/V>  (35) 
0.0063813999999999997

>  <r_qp_dipole>  (35) 
2.9769999999999999

>  <r_qp_donorHB>  (35) 
1

>  <r_qp_glob>  (35) 
0.81055860000000002

>  <r_qp_mol_MW>  (35) 
423.56

>  <r_qp_volume>  (35) 
1388.9860000000001

>  <r_sd_BIOSOLVEIT.INFINISEE\_FTREES\_SIMILARITY>  (35) 
0.91100000000000003

>  <r_sd_BIOSOLVEIT.LOGP>  (35) 
2.3765999999999998

>  <r_sd_BIOSOLVEIT.MOLECULAR\_WEIGHT>  (35) 
425.577

>  <r_sd_BIOSOLVEIT.TPSA>  (35) 
51.759999999999998

>  <i_epik_Tot_Q>  (35) 
2

>  <i_epik_Tot_abs_Q>  (35) 
2

>  <i_f3d_flags>  (35) 
0

>  <i_i_glide_confnum>  (35) 
9

>  <i_i_glide_lignum>  (35) 
488

>  <i_i_glide_posenum>  (35) 
20

>  <i_i_glide_rotatable_bonds>  (35) 
8

>  <i_lp_mmshare_version>  (35) 
65135

>  <i_m_ct_format>  (35) 
2

>  <i_m_source_file_index>  (35) 
1194

>  <i_qp_#NandO>  (35) 
5

>  <i_qp_#acid>  (35) 
0

>  <i_qp_#amide>  (35) 
0

>  <i_qp_#amidine>  (35) 
0

>  <i_qp_#amine>  (35) 
2

>  <i_qp_#in34>  (35) 
0

>  <i_qp_#in56>  (35) 
28

>  <i_qp_#metab>  (35) 
7

>  <i_qp_#nonHatm>  (35) 
32

>  <i_qp_#noncon>  (35) 
4

>  <i_qp_#ringatoms>  (35) 
28

>  <i_qp_#rotor>  (35) 
6

>  <i_qp_#rtvFG>  (35) 
0

>  <i_qp_#stars>  (35) 
1

>  <i_qp_CNS>  (35) 
2

>  <i_qp_HumanOralAbsorption>  (35) 
3

>  <i_qp_RuleOfFive>  (35) 
0

>  <i_qp_RuleOfThree>  (35) 
1

>  <i_sd_BIOSOLVEIT.INFINISEE\_REAGENT1\_NAME>  (35) 
24793076

>  <i_sd_BIOSOLVEIT.INFINISEE\_REAGENT2\_NAME>  (35) 
7547738

>  <i_sd_BIOSOLVEIT.INFINISEE\_RESULT\_RANK>  (35) 
39764

>  <i_sd_version>  (35) 
0

>  <b_lp_Chiralities_Consistent>  (35) 
1

>  <b_sd_chiral_flag>  (35) 
0

>  <canonical_id>  (35) 
ATP-HTVS-0CC0B448CED2

>  <compound_code>  (35) 
38179

>  <title>  (35) 
m_270004bbb____24793076____7547738

>  <variant>  (35) 
38179-1

>  <source_file>  (35) 
运行/运行/ATP-VSW/ATP-VSW-DOCK_HTVS_1-003_lib/ATP-VSW-DOCK_HTVS_1-003_lib.mae

>  <canonical_smiles>  (35) 
c1ccc(-n2cc(C[NH2+]Cc3ccccc3C[NH+]3CCCC3)c(-c3cccnc3)n2)cc1

>  <scaffold>  (35) 
c1ccc(-n2cc(C[NH2+]Cc3ccccc3C[NH+]3CCCC3)c(-c3cccnc3)n2)cc1

>  <molecular_formula>  (35) 
C27H31N5+2

>  <acquisition_id_v2>  (35) 
ATP-ACQ2-0035

>  <selection_arm_v2>  (35) 
local_structure_bridge

>  <priority_v2>  (35) 
P1

$$$$
ATP-ACQ2-0036
     RDKit          3D

 69 72  0  0  0  0  0  0  0  0999 V2000
  193.1687  187.2821  163.0569 O   0  0  0  0  0  0  0  0  0  0  0  0
  193.6736  187.7272  161.7962 C   0  0  0  0  0  0  0  0  0  0  0  0
  194.9593  186.9202  161.4693 C   0  0  0  0  0  0  0  0  0  0  0  0
  195.8155  187.5368  160.3998 N   0  0  2  0  0  0  0  0  0  0  0  0
  197.0374  186.7462  160.0791 C   0  0  0  0  0  0  0  0  0  0  0  0
  196.8081  185.5161  159.2219 C   0  0  0  0  0  0  0  0  0  0  0  0
  197.9847  184.8101  158.8339 C   0  0  0  0  0  0  0  0  0  0  0  0
  197.9116  183.6259  158.0692 C   0  0  0  0  0  0  0  0  0  0  0  0
  196.5961  183.1432  157.7556 C   0  0  0  0  0  0  0  0  0  0  0  0
  195.4494  183.8396  158.1544 C   0  0  0  0  0  0  0  0  0  0  0  0
  195.5347  185.0636  158.8415 C   0  0  0  0  0  0  0  0  0  0  0  0
  196.3973  181.8058  157.0332 C   0  0  0  0  0  0  0  0  0  0  0  0
  197.4601  181.4731  156.0548 N   0  0  2  0  0  0  0  0  0  0  0  0
  196.9819  180.8381  154.8052 C   0  0  0  0  0  0  0  0  0  0  0  0
  197.1676  181.8767  153.7286 C   0  0  0  0  0  0  0  0  0  0  0  0
  197.8000  183.0397  153.9238 N   0  0  0  0  0  0  0  0  0  0  0  0
  197.7084  183.6552  152.6845 C   0  0  0  0  0  0  0  0  0  0  0  0
  197.0174  182.8335  151.7585 C   0  0  0  0  0  0  0  0  0  0  0  0
  196.7030  181.6679  152.4602 N   0  0  0  0  0  0  0  0  0  0  0  0
  196.0115  180.5009  151.9216 C   0  0  0  0  0  0  0  0  0  0  0  0
  196.9347  179.6152  151.0998 C   0  0  0  0  0  0  0  0  0  0  0  0
  197.9292  178.8442  151.7316 C   0  0  0  0  0  0  0  0  0  0  0  0
  198.7800  178.0174  150.9703 C   0  0  0  0  0  0  0  0  0  0  0  0
  198.6355  177.9563  149.5716 C   0  0  0  0  0  0  0  0  0  0  0  0
  197.6364  178.7161  148.9344 C   0  0  0  0  0  0  0  0  0  0  0  0
  196.7854  179.5449  149.6956 C   0  0  0  0  0  0  0  0  0  0  0  0
  196.7824  183.2609  150.4298 C   0  0  0  0  0  0  0  0  0  0  0  0
  197.2385  184.5306  150.0208 C   0  0  0  0  0  0  0  0  0  0  0  0
  197.9491  185.3487  150.9215 C   0  0  0  0  0  0  0  0  0  0  0  0
  198.1864  184.9118  152.2454 C   0  0  0  0  0  0  0  0  0  0  0  0
  198.5726  180.7086  156.6755 C   0  0  0  0  0  0  0  0  0  0  0  0
  196.1613  188.9682  160.6355 C   0  0  0  0  0  0  0  0  0  0  0  0
  192.1502  186.3099  162.9926 C   0  0  0  0  0  0  0  0  0  0  0  0
  192.9405  187.6215  160.9937 H   0  0  0  0  0  0  0  0  0  0  0  0
  193.8778  188.7806  161.9374 H   0  0  0  0  0  0  0  0  0  0  0  0
  195.5464  186.8446  162.3867 H   0  0  0  0  0  0  0  0  0  0  0  0
  194.6880  185.9052  161.1890 H   0  0  0  0  0  0  0  0  0  0  0  0
  197.7812  187.3554  159.5759 H   0  0  0  0  0  0  0  0  0  0  0  0
  197.5143  186.3782  160.9554 H   0  0  0  0  0  0  0  0  0  0  0  0
  198.9553  185.1789  159.1245 H   0  0  0  0  0  0  0  0  0  0  0  0
  198.8190  183.1776  157.7323 H   0  0  0  0  0  0  0  0  0  0  0  0
  194.4603  183.4625  157.8872 H   0  0  0  0  0  0  0  0  0  0  0  0
  194.6242  185.6092  159.0773 H   0  0  0  0  0  0  0  0  0  0  0  0
  196.2998  181.0660  157.7943 H   0  0  0  0  0  0  0  0  0  0  0  0
  195.4226  181.8492  156.5390 H   0  0  0  0  0  0  0  0  0  0  0  0
  197.5665  179.9578  154.5812 H   0  0  0  0  0  0  0  0  0  0  0  0
  195.9408  180.5325  154.8470 H   0  0  0  0  0  0  0  0  0  0  0  0
  195.5575  179.8962  152.7050 H   0  0  0  0  0  0  0  0  0  0  0  0
  195.1905  180.8486  151.2975 H   0  0  0  0  0  0  0  0  0  0  0  0
  198.0574  178.8649  152.8013 H   0  0  0  0  0  0  0  0  0  0  0  0
  199.5462  177.4380  151.4622 H   0  0  0  0  0  0  0  0  0  0  0  0
  199.2957  177.3272  148.9878 H   0  0  0  0  0  0  0  0  0  0  0  0
  197.5299  178.6695  147.8592 H   0  0  0  0  0  0  0  0  0  0  0  0
  196.0239  180.1202  149.1928 H   0  0  0  0  0  0  0  0  0  0  0  0
  196.2644  182.6250  149.7392 H   0  0  0  0  0  0  0  0  0  0  0  0
  197.0521  184.8705  149.0108 H   0  0  0  0  0  0  0  0  0  0  0  0
  198.3007  186.3188  150.6002 H   0  0  0  0  0  0  0  0  0  0  0  0
  198.7315  185.5430  152.9292 H   0  0  0  0  0  0  0  0  0  0  0  0
  198.2243  179.6915  156.9138 H   0  0  0  0  0  0  0  0  0  0  0  0
  198.9647  181.1986  157.5395 H   0  0  0  0  0  0  0  0  0  0  0  0
  199.3858  180.5720  155.9603 H   0  0  0  0  0  0  0  0  0  0  0  0
  196.6037  189.1009  161.6206 H   0  0  0  0  0  0  0  0  0  0  0  0
  195.2667  189.5999  160.5932 H   0  0  0  0  0  0  0  0  0  0  0  0
  196.9098  189.3224  159.9187 H   0  0  0  0  0  0  0  0  0  0  0  0
  191.8267  186.0479  164.0054 H   0  0  0  0  0  0  0  0  0  0  0  0
  192.5475  185.4340  162.4966 H   0  0  0  0  0  0  0  0  0  0  0  0
  191.3085  186.6956  162.4184 H   0  0  0  0  0  0  0  0  0  0  0  0
  195.2955  187.5431  159.5379 H   0  0  0  0  0  0  0  0  0  0  0  0
  197.8024  182.3601  155.6945 H   0  0  0  0  0  0  0  0  0  0  0  0
  1  2  1  0
  1 33  1  0
  2  3  1  0
  2 34  1  0
  2 35  1  0
  3  4  1  0
  3 36  1  0
  3 37  1  0
  4  5  1  0
  4 32  1  0
  4 68  1  6
  5  6  1  0
  5 38  1  0
  5 39  1  0
  6  7  1  0
  6 11  2  0
  7  8  2  0
  7 40  1  0
  8  9  1  0
  8 41  1  0
  9 10  2  0
  9 12  1  0
 10 11  1  0
 10 42  1  0
 11 43  1  0
 12 13  1  0
 12 44  1  0
 12 45  1  0
 13 14  1  0
 13 31  1  0
 13 69  1  6
 14 15  1  0
 14 46  1  0
 14 47  1  0
 15 16  2  0
 15 19  1  0
 16 17  1  0
 17 18  1  0
 17 30  2  0
 18 19  1  0
 18 27  2  0
 19 20  1  0
 20 21  1  0
 20 48  1  0
 20 49  1  0
 21 22  2  0
 21 26  1  0
 22 23  1  0
 22 50  1  0
 23 24  2  0
 23 51  1  0
 24 25  1  0
 24 52  1  0
 25 26  2  0
 25 53  1  0
 26 54  1  0
 27 28  1  0
 27 55  1  0
 28 29  2  0
 28 56  1  0
 29 30  1  0
 29 57  1  0
 30 58  1  0
 31 59  1  0
 31 60  1  0
 31 61  1  0
 32 62  1  0
 32 63  1  0
 32 64  1  0
 33 65  1  0
 33 66  1  0
 33 67  1  0
M  CHG  2   4   1  13   1
M  END
>  <s_epik_cmdline>  (36) 
J2VwaWtfcHl0aG9uJywgJy1waCcsICc3LjAwMDAwMCcsICctcGh0JywgJzIuMDAwMDAwJywgJy1tcycsICcxNicsICctdG4nLCAnOCcsICctbWEnLCAnMjAwJywgJy1pbWFlJywgJzxpbmZpbGUubWFlPicsICctb21hZScsICc8b3V0ZmlsZS5tYWU+Jw==

>  <s_epik_input>  (36) 
W0NIM11PW0NIMl1bQ0gyXU4oW0NIM10pW0NIMl1jMVtjSF1bY0hdYyhbY0hdW2NIXTEpW0NIMl1OKFtDSDNdKVtDSDJdYyhuMiluKGMoYzIzKVtjSF1bY0hdW2NIXVtjSF0zKVtDSDJdYzRbY0hdW2NIXVtjSF1bY0hdW2NIXTQ=

>  <s_i_glide_gridfile>  (36) 
ATP-Grid

>  <s_lp_Force_Field>  (36) 
OPLS_2005

>  <s_lp_Variant>  (36) 
m_270004bca____17609654____24720860-4

>  <s_lp_label>  (36) 
907_sdstereoexpander_1_neutralizer_1_epik_2_stereoizer_2

>  <s_m_source_file>  (36) 
ATP-VSW-LIGPREP-001-in.maegz

>  <s_sd_BIOSOLVEIT.INFINISEE\_QUERY\_NAME>  (36) 
Ref-Lig

>  <s_sd_BIOSOLVEIT.INFINISEE\_QUERY\_SMILES>  (36) 
S(c1nc2c(cc1C[NH2+]Cc3ccc(cc3)C[NH+](C)C)cccc2)Cc4ccccc4

>  <s_sd_BIOSOLVEIT.INFINISEE\_REACTION\_NAME>  (36) 
m_270004bca

>  <s_sd_BIOSOLVEIT.INFINISEE\_REAGENT1\_SMILES>  (36) 
[R1*]N(Cc1ccc(cc1)CN(CCOC)C)C

>  <s_sd_BIOSOLVEIT.INFINISEE\_REAGENT2\_SMILES>  (36) 
[R1*]CC1=Nc2c(N1Cc3ccccc3)cccc2

>  <s_sd_BIOSOLVEIT.INFINISEE\_SPACE>  (36) 
REALSpace_44bn_2023-08

>  <s_vsw_compound_code>  (36) 
28993

>  <s_vsw_variant>  (36) 
28993-4

>  <r_epik_Charging_Adjusted_Penalty>  (36) 
1.92409462097896

>  <r_epik_Ionization_Penalty>  (36) 
0.90710000000000002

>  <r_epik_Ionization_Penalty_Charging>  (36) 
0.90469999999999995

>  <r_epik_Ionization_Penalty_Neutral>  (36) 
0.0023999999999999998

>  <r_epik_State_Penalty>  (36) 
1.0194000000000001

>  <r_i_docking_score>  (36) 
-5.1431679964661203

>  <r_i_glide_ecoul>  (36) 
-12.8021383285522

>  <r_i_glide_eff_state_penalty>  (36) 
1.0194000000000001

>  <r_i_glide_einternal>  (36) 
17.771198272705099

>  <r_i_glide_emodel>  (36) 
-69.594214546928697

>  <r_i_glide_energy>  (36) 
-50.018668174743702

>  <r_i_glide_erotb>  (36) 
1.0118085306539999

>  <r_i_glide_esite>  (36) 
-0.0813747353325288

>  <r_i_glide_evdw>  (36) 
-37.216529846191399

>  <r_i_glide_gscore>  (36) 
-6.1625679964661204

>  <r_i_glide_hbond>  (36) 
-0.13092937170301699

>  <r_i_glide_ligand_efficiency>  (36) 
-0.15585357565048799

>  <r_i_glide_ligand_efficiency_ln>  (36) 
-1.14381393251538

>  <r_i_glide_ligand_efficiency_sa>  (36) 
-0.49990569376890198

>  <r_i_glide_lipo>  (36) 
-2.5782772694012599

>  <r_i_glide_metal>  (36) 
-0

>  <r_i_glide_rewards>  (36) 
-0.60264790909090704

>  <r_lp_Energy>  (36) 
25.307272000000001

>  <r_qp_ACxDN^.5/SA>  (36) 
0

>  <r_qp_CIQPlogS>  (36) 
-4.2949999999999999

>  <r_qp_EA(eV)>  (36) 
0.22700000000000001

>  <r_qp_FISA>  (36) 
11.707000000000001

>  <r_qp_FOSA>  (36) 
358.37299999999999

>  <r_qp_IP(eV)>  (36) 
8.4670000000000005

>  <r_qp_Jm>  (36) 
1.1303665270141201

>  <r_qp_PISA>  (36) 
360.26799999999997

>  <r_qp_PSA>  (36) 
29.338000000000001

>  <r_qp_PercentHumanOralAbsorption>  (36) 
100

>  <r_qp_QPPCaco>  (36) 
477.18400000000003

>  <r_qp_QPPMDCK>  (36) 
272.149

>  <r_qp_QPlogBB>  (36) 
0.58799999999999997

>  <r_qp_QPlogHERG>  (36) 
-7.226

>  <r_qp_QPlogKhsa>  (36) 
0.40300000000000002

>  <r_qp_QPlogKp>  (36) 
-3.5350000000000001

>  <r_qp_QPlogPC16>  (36) 
14.106999999999999

>  <r_qp_QPlogPo/w>  (36) 
4.4640000000000004

>  <r_qp_QPlogPoct>  (36) 
19.649999999999999

>  <r_qp_QPlogPw>  (36) 
8.6720000000000006

>  <r_qp_QPlogS>  (36) 
-2.0579999999999998

>  <r_qp_QPpolrz>  (36) 
47.816000000000003

>  <r_qp_SASA>  (36) 
730.34799999999996

>  <r_qp_SAamideO>  (36) 
0

>  <r_qp_SAfluorine>  (36) 
0

>  <r_qp_WPSA>  (36) 
0

>  <r_qp_accptHB>  (36) 
7.2000000000000002

>  <r_qp_dip^2/V>  (36) 
0.020501800000000001

>  <r_qp_dipole>  (36) 
5.4320000000000004

>  <r_qp_donorHB>  (36) 
0

>  <r_qp_glob>  (36) 
0.84403260000000002

>  <r_qp_mol_MW>  (36) 
442.60300000000001

>  <r_qp_volume>  (36) 
1439.0830000000001

>  <r_sd_BIOSOLVEIT.INFINISEE\_FTREES\_SIMILARITY>  (36) 
0.91900000000000004

>  <r_sd_BIOSOLVEIT.LOGP>  (36) 
1.9605999999999999

>  <r_sd_BIOSOLVEIT.MOLECULAR\_WEIGHT>  (36) 
444.61900000000003

>  <r_sd_BIOSOLVEIT.TPSA>  (36) 
35.93

>  <i_epik_Tot_Q>  (36) 
2

>  <i_epik_Tot_abs_Q>  (36) 
2

>  <i_f3d_flags>  (36) 
0

>  <i_i_glide_confnum>  (36) 
10

>  <i_i_glide_lignum>  (36) 
169

>  <i_i_glide_posenum>  (36) 
17

>  <i_i_glide_rotatable_bonds>  (36) 
11

>  <i_lp_mmshare_version>  (36) 
65135

>  <i_m_ct_format>  (36) 
2

>  <i_m_source_file_index>  (36) 
907

>  <i_qp_#NandO>  (36) 
5

>  <i_qp_#acid>  (36) 
0

>  <i_qp_#amide>  (36) 
0

>  <i_qp_#amidine>  (36) 
0

>  <i_qp_#amine>  (36) 
2

>  <i_qp_#in34>  (36) 
0

>  <i_qp_#in56>  (36) 
21

>  <i_qp_#metab>  (36) 
7

>  <i_qp_#nonHatm>  (36) 
33

>  <i_qp_#noncon>  (36) 
0

>  <i_qp_#ringatoms>  (36) 
21

>  <i_qp_#rotor>  (36) 
11

>  <i_qp_#rtvFG>  (36) 
0

>  <i_qp_#stars>  (36) 
0

>  <i_qp_CNS>  (36) 
2

>  <i_qp_HumanOralAbsorption>  (36) 
3

>  <i_qp_RuleOfFive>  (36) 
0

>  <i_qp_RuleOfThree>  (36) 
1

>  <i_sd_BIOSOLVEIT.INFINISEE\_REAGENT1\_NAME>  (36) 
17609654

>  <i_sd_BIOSOLVEIT.INFINISEE\_REAGENT2\_NAME>  (36) 
24720860

>  <i_sd_BIOSOLVEIT.INFINISEE\_RESULT\_RANK>  (36) 
19319

>  <i_sd_version>  (36) 
0

>  <b_lp_Chiralities_Consistent>  (36) 
1

>  <b_sd_chiral_flag>  (36) 
0

>  <canonical_id>  (36) 
ATP-HTVS-7AB1442FC022

>  <compound_code>  (36) 
28993

>  <title>  (36) 
m_270004bca____17609654____24720860

>  <variant>  (36) 
28993-4

>  <source_file>  (36) 
运行/运行/ATP-VSW/ATP-VSW-DOCK_HTVS_1-001_lib/ATP-VSW-DOCK_HTVS_1-001_lib

>  <canonical_smiles>  (36) 
COCC[N@@H+](C)Cc1ccc(C[N@@H+](C)Cc2nc3ccccc3n2Cc2ccccc2)cc1

>  <scaffold>  (36) 
c1ccc(C[NH2+]Cc2nc3ccccc3n2Cc2ccccc2)cc1

>  <molecular_formula>  (36) 
C28H36N4O+2

>  <acquisition_id_v2>  (36) 
ATP-ACQ2-0036

>  <selection_arm_v2>  (36) 
scaffold_score_exploration

>  <priority_v2>  (36) 
P1

$$$$
ATP-ACQ2-0037
     RDKit          3D

 55 57  0  0  0  0  0  0  0  0999 V2000
  197.0380  184.5115  158.7422 S   0  0  0  0  0  0  0  0  0  0  0  0
  195.6546  185.1529  159.5988 C   0  0  0  0  0  0  0  0  0  0  0  0
  195.7100  186.4915  160.1986 C   0  0  0  0  0  0  0  0  0  0  0  0
  194.7346  186.8880  161.1429 C   0  0  0  0  0  0  0  0  0  0  0  0
  194.7505  188.1768  161.7135 C   0  0  0  0  0  0  0  0  0  0  0  0
  195.7469  189.1142  161.3356 C   0  0  0  0  0  0  0  0  0  0  0  0
  195.7730  190.4678  161.9339 N   0  0  0  0  0  0  0  0  0  0  0  0
  196.7453  191.1871  161.7262 O   0  0  0  0  0  0  0  0  0  0  0  0
  194.8220  190.8030  162.6363 O   0  0  0  0  0  0  0  0  0  0  0  0
  196.7243  188.7226  160.3984 C   0  0  0  0  0  0  0  0  0  0  0  0
  196.6963  187.4355  159.8260 C   0  0  0  0  0  0  0  0  0  0  0  0
  194.6351  184.2337  159.6173 C   0  0  0  0  0  0  0  0  0  0  0  0
  194.9540  183.0085  158.9548 C   0  0  0  0  0  0  0  0  0  0  0  0
  196.2160  183.0061  158.4211 C   0  0  0  0  0  0  0  0  0  0  0  0
  196.9053  181.9136  157.6772 C   0  0  0  0  0  0  0  0  0  0  0  0
  196.1085  181.4413  156.5332 N   0  0  0  0  0  0  0  0  0  0  0  0
  196.8331  180.5492  155.6104 C   0  0  0  0  0  0  0  0  0  0  0  0
  196.9440  181.1698  154.2086 C   0  0  0  0  0  0  0  0  0  0  0  0
  197.6114  180.2380  153.2128 C   0  0  0  0  0  0  0  0  0  0  0  0
  196.9198  179.8155  152.0582 C   0  0  0  0  0  0  0  0  0  0  0  0
  197.5467  178.9559  151.1359 C   0  0  0  0  0  0  0  0  0  0  0  0
  198.8617  178.4996  151.3654 C   0  0  0  0  0  0  0  0  0  0  0  0
  199.5540  178.9269  152.5175 C   0  0  0  0  0  0  0  0  0  0  0  0
  198.9332  179.7938  153.4340 C   0  0  0  0  0  0  0  0  0  0  0  0
  199.5384  177.5693  150.3742 C   0  0  0  0  0  0  0  0  0  0  0  0
  199.6563  176.1815  150.8920 N   0  0  0  0  0  0  0  0  0  0  0  0
  200.6144  175.3732  150.1040 C   0  0  0  0  0  0  0  0  0  0  0  0
  198.3563  175.4907  151.0383 C   0  0  0  0  0  0  0  0  0  0  0  0
  195.3736  180.8686  156.9363 H   0  0  0  0  0  0  0  0  0  0  0  0
  193.9493  186.2095  161.4346 H   0  0  0  0  0  0  0  0  0  0  0  0
  193.9841  188.4492  162.4230 H   0  0  0  0  0  0  0  0  0  0  0  0
  197.4982  189.4198  160.0994 H   0  0  0  0  0  0  0  0  0  0  0  0
  197.4497  187.1971  159.0910 H   0  0  0  0  0  0  0  0  0  0  0  0
  193.6744  184.3809  160.0879 H   0  0  0  0  0  0  0  0  0  0  0  0
  194.2571  182.1810  158.9078 H   0  0  0  0  0  0  0  0  0  0  0  0
  197.8782  182.2681  157.3329 H   0  0  0  0  0  0  0  0  0  0  0  0
  197.0920  181.0704  158.3399 H   0  0  0  0  0  0  0  0  0  0  0  0
  197.8165  180.2895  156.0067 H   0  0  0  0  0  0  0  0  0  0  0  0
  196.2904  179.6065  155.5705 H   0  0  0  0  0  0  0  0  0  0  0  0
  195.9489  181.4453  153.8515 H   0  0  0  0  0  0  0  0  0  0  0  0
  197.5165  182.0969  154.2457 H   0  0  0  0  0  0  0  0  0  0  0  0
  195.9105  180.1542  151.8711 H   0  0  0  0  0  0  0  0  0  0  0  0
  197.0074  178.6478  150.2526 H   0  0  0  0  0  0  0  0  0  0  0  0
  200.5656  178.5977  152.7086 H   0  0  0  0  0  0  0  0  0  0  0  0
  199.4821  180.1167  154.3073 H   0  0  0  0  0  0  0  0  0  0  0  0
  199.0029  177.5715  149.4229 H   0  0  0  0  0  0  0  0  0  0  0  0
  200.5304  177.9775  150.1694 H   0  0  0  0  0  0  0  0  0  0  0  0
  200.2664  175.2439  149.0768 H   0  0  0  0  0  0  0  0  0  0  0  0
  200.7428  174.3815  150.5430 H   0  0  0  0  0  0  0  0  0  0  0  0
  201.5962  175.8504  150.0752 H   0  0  0  0  0  0  0  0  0  0  0  0
  197.8535  175.4084  150.0753 H   0  0  0  0  0  0  0  0  0  0  0  0
  197.7056  176.0224  151.7254 H   0  0  0  0  0  0  0  0  0  0  0  0
  198.4921  174.4915  151.4495 H   0  0  0  0  0  0  0  0  0  0  0  0
  195.6727  182.2140  156.0438 H   0  0  0  0  0  0  0  0  0  0  0  0
  200.0464  176.2637  151.8210 H   0  0  0  0  0  0  0  0  0  0  0  0
  1  2  1  0
  1 14  1  0
  2  3  1  0
  2 12  2  0
  3  4  1  0
  3 11  2  0
  4  5  2  0
  4 30  1  0
  5  6  1  0
  5 31  1  0
  6  7  1  0
  6 10  2  0
  7  8  1  0
  7  9  2  0
 10 11  1  0
 10 32  1  0
 11 33  1  0
 12 13  1  0
 12 34  1  0
 13 14  2  0
 13 35  1  0
 14 15  1  0
 15 16  1  0
 15 36  1  0
 15 37  1  0
 16 17  1  0
 16 29  1  0
 16 54  1  0
 17 18  1  0
 17 38  1  0
 17 39  1  0
 18 19  1  0
 18 40  1  0
 18 41  1  0
 19 20  1  0
 19 24  2  0
 20 21  2  0
 20 42  1  0
 21 22  1  0
 21 43  1  0
 22 23  2  0
 22 25  1  0
 23 24  1  0
 23 44  1  0
 24 45  1  0
 25 26  1  0
 25 46  1  0
 25 47  1  0
 26 27  1  0
 26 28  1  0
 26 55  1  0
 27 48  1  0
 27 49  1  0
 27 50  1  0
 28 51  1  0
 28 52  1  0
 28 53  1  0
M  CHG  4   7   1   8  -1  16   1  26   1
M  END
>  <s_epik_cmdline>  (37) 
J2VwaWtfcHl0aG9uJywgJy1waCcsICc3LjAwMDAwMCcsICctcGh0JywgJzIuMDAwMDAwJywgJy1tcycsICcxNicsICctdG4nLCAnOCcsICctbWEnLCAnMjAwJywgJy1pbWFlJywgJzxpbmZpbGUubWFlPicsICctb21hZScsICc8b3V0ZmlsZS5tYWU+Jw==

>  <s_epik_input>  (37) 
W08tXVtOK10oPU8pYyhbY0hdW2NIXTEpW2NIXVtjSF1jMS1jMnNjKFtjSF1bY0hdMilbQ0gyXVtOSF1bQ0gyXVtDSDJdYzNbY0hdW2NIXWMoW2NIXVtjSF0zKVtDSDJdTihbQ0gzXSlbQ0gzXQ==

>  <s_i_glide_gridfile>  (37) 
ATP-Grid

>  <s_lp_Force_Field>  (37) 
OPLS_2005

>  <s_lp_Variant>  (37) 
m_270004bbb____15775648____7548658-1

>  <s_lp_label>  (37) 
1743_sdstereoexpander_1_neutralizer_1_epik_1_stereoizer_1

>  <s_m_source_file>  (37) 
ATP-VSW-LIGPREP-002-in.maegz

>  <s_sd_BIOSOLVEIT.INFINISEE\_QUERY\_NAME>  (37) 
Ref-Lig

>  <s_sd_BIOSOLVEIT.INFINISEE\_QUERY\_SMILES>  (37) 
S(c1nc2c(cc1C[NH2+]Cc3ccc(cc3)C[NH+](C)C)cccc2)Cc4ccccc4

>  <s_sd_BIOSOLVEIT.INFINISEE\_REACTION\_NAME>  (37) 
m_270004bbb

>  <s_sd_BIOSOLVEIT.INFINISEE\_REAGENT1\_SMILES>  (37) 
[R1*]NCCc1ccc(cc1)CN(C)C

>  <s_sd_BIOSOLVEIT.INFINISEE\_REAGENT2\_SMILES>  (37) 
[R1*]CC=1SC(c2ccc([N+]([O-])=O)cc2)=CC1

>  <s_sd_BIOSOLVEIT.INFINISEE\_SPACE>  (37) 
REALSpace_44bn_2023-08

>  <s_vsw_compound_code>  (37) 
55746

>  <s_vsw_variant>  (37) 
55746-1

>  <r_epik_Charging_Adjusted_Penalty>  (37) 
0.127492986648304

>  <r_epik_Ionization_Penalty>  (37) 
0.064399999999999999

>  <r_epik_Ionization_Penalty_Charging>  (37) 
0.064399999999999999

>  <r_epik_Ionization_Penalty_Neutral>  (37) 
0

>  <r_epik_State_Penalty>  (37) 
0.063100000000000003

>  <r_i_docking_score>  (37) 
-6.1179949635366402

>  <r_i_glide_ecoul>  (37) 
-13.385217666626

>  <r_i_glide_eff_state_penalty>  (37) 
0.063100000000000003

>  <r_i_glide_einternal>  (37) 
4.8753113746643102

>  <r_i_glide_emodel>  (37) 
-75.413791174209706

>  <r_i_glide_energy>  (37) 
-49.280309677124002

>  <r_i_glide_erotb>  (37) 
0.86709312904320202

>  <r_i_glide_esite>  (37) 
-0.224538824597563

>  <r_i_glide_evdw>  (37) 
-35.895092010497997

>  <r_i_glide_gscore>  (37) 
-6.1810949635366397

>  <r_i_glide_hbond>  (37) 
-0.197466287426416

>  <r_i_glide_ligand_efficiency>  (37) 
-0.218499820126308

>  <r_i_glide_ligand_efficiency_ln>  (37) 
-1.4122128697218901

>  <r_i_glide_ligand_efficiency_sa>  (37) 
-0.66349414341539803

>  <r_i_glide_lipo>  (37) 
-1.9000185482188801

>  <r_i_glide_metal>  (37) 
-0

>  <r_i_glide_rewards>  (37) 
-0.92362718181818004

>  <r_lp_Energy>  (37) 
20.179513

>  <r_qp_ACxDN^.5/SA>  (37) 
0.0058973999999999997

>  <r_qp_CIQPlogS>  (37) 
-4.3810000000000002

>  <r_qp_EA(eV)>  (37) 
1.6200000000000001

>  <r_qp_FISA>  (37) 
118.892

>  <r_qp_FOSA>  (37) 
282.61599999999999

>  <r_qp_IP(eV)>  (37) 
9.0950000000000006

>  <r_qp_Jm>  (37) 
7.05265403698731e-06

>  <r_qp_PISA>  (37) 
337.76999999999998

>  <r_qp_PSA>  (37) 
64.548000000000002

>  <r_qp_PercentHumanOralAbsorption>  (37) 
82.218999999999994

>  <r_qp_QPPCaco>  (37) 
45.945999999999998

>  <r_qp_QPPMDCK>  (37) 
29.265999999999998

>  <r_qp_QPlogBB>  (37) 
-0.41099999999999998

>  <r_qp_QPlogHERG>  (37) 
-8.3659999999999997

>  <r_qp_QPlogKhsa>  (37) 
1.01

>  <r_qp_QPlogKp>  (37) 
-5.8780000000000001

>  <r_qp_QPlogPC16>  (37) 
14.382

>  <r_qp_QPlogPo/w>  (37) 
4.359

>  <r_qp_QPlogPoct>  (37) 
19.498999999999999

>  <r_qp_QPlogPw>  (37) 
8.8019999999999996

>  <r_qp_QPlogS>  (37) 
-4.8710000000000004

>  <r_qp_QPpolrz>  (37) 
45.207000000000001

>  <r_qp_SASA>  (37) 
763.048

>  <r_qp_SAamideO>  (37) 
0

>  <r_qp_SAfluorine>  (37) 
0

>  <r_qp_WPSA>  (37) 
23.768999999999998

>  <r_qp_accptHB>  (37) 
4.5

>  <r_qp_dip^2/V>  (37) 
0.053092599999999997

>  <r_qp_dipole>  (37) 
8.407

>  <r_qp_donorHB>  (37) 
1

>  <r_qp_glob>  (37) 
0.76694200000000001

>  <r_qp_mol_MW>  (37) 
395.51799999999997

>  <r_qp_volume>  (37) 
1331.1400000000001

>  <r_sd_BIOSOLVEIT.INFINISEE\_FTREES\_SIMILARITY>  (37) 
0.90400000000000003

>  <r_sd_BIOSOLVEIT.LOGP>  (37) 
2.2738999999999998

>  <r_sd_BIOSOLVEIT.MOLECULAR\_WEIGHT>  (37) 
397.53899999999999

>  <r_sd_BIOSOLVEIT.TPSA>  (37) 
66.870000000000005

>  <i_epik_Tot_Q>  (37) 
2

>  <i_epik_Tot_abs_Q>  (37) 
4

>  <i_f3d_flags>  (37) 
0

>  <i_i_glide_confnum>  (37) 
8

>  <i_i_glide_lignum>  (37) 
600

>  <i_i_glide_posenum>  (37) 
1

>  <i_i_glide_rotatable_bonds>  (37) 
9

>  <i_lp_mmshare_version>  (37) 
65135

>  <i_m_ct_format>  (37) 
2

>  <i_m_source_file_index>  (37) 
1743

>  <i_qp_#NandO>  (37) 
5

>  <i_qp_#acid>  (37) 
0

>  <i_qp_#amide>  (37) 
0

>  <i_qp_#amidine>  (37) 
0

>  <i_qp_#amine>  (37) 
2

>  <i_qp_#in34>  (37) 
0

>  <i_qp_#in56>  (37) 
17

>  <i_qp_#metab>  (37) 
7

>  <i_qp_#nonHatm>  (37) 
28

>  <i_qp_#noncon>  (37) 
0

>  <i_qp_#ringatoms>  (37) 
17

>  <i_qp_#rotor>  (37) 
8

>  <i_qp_#rtvFG>  (37) 
0

>  <i_qp_#stars>  (37) 
0

>  <i_qp_CNS>  (37) 
1

>  <i_qp_HumanOralAbsorption>  (37) 
2

>  <i_qp_RuleOfFive>  (37) 
0

>  <i_qp_RuleOfThree>  (37) 
1

>  <i_sd_BIOSOLVEIT.INFINISEE\_REAGENT1\_NAME>  (37) 
15775648

>  <i_sd_BIOSOLVEIT.INFINISEE\_REAGENT2\_NAME>  (37) 
7548658

>  <i_sd_BIOSOLVEIT.INFINISEE\_RESULT\_RANK>  (37) 
74222

>  <i_sd_version>  (37) 
0

>  <b_lp_Chiralities_Consistent>  (37) 
1

>  <b_sd_chiral_flag>  (37) 
0

>  <canonical_id>  (37) 
ATP-HTVS-8E3D409F2843

>  <compound_code>  (37) 
55746

>  <title>  (37) 
m_270004bbb____15775648____7548658

>  <variant>  (37) 
55746-1

>  <source_file>  (37) 
运行/运行/ATP-VSW/ATP-VSW-DOCK_HTVS_1-002_lib.maegz

>  <canonical_smiles>  (37) 
C[NH+](C)Cc1ccc(CC[NH2+]Cc2ccc(-c3ccc([N+](=O)[O-])cc3)s2)cc1

>  <scaffold>  (37) 
c1ccc(CC[NH2+]Cc2ccc(-c3ccccc3)s2)cc1

>  <molecular_formula>  (37) 
C22H27N3O2S+2

>  <acquisition_id_v2>  (37) 
ATP-ACQ2-0037

>  <selection_arm_v2>  (37) 
exploitation

>  <priority_v2>  (37) 
P1

$$$$
ATP-ACQ2-0038
     RDKit          3D

 61 63  0  0  0  0  0  0  0  0999 V2000
  201.1552  178.9739  156.1652 O   0  0  0  0  0  0  0  0  0  0  0  0
  201.4460  180.0469  156.9577 C   0  0  0  0  0  0  0  0  0  0  0  0
  202.1746  180.0161  158.1801 C   0  0  0  0  0  0  0  0  0  0  0  0
  202.4021  181.1038  158.9380 N   0  0  0  0  0  0  0  0  0  0  0  0
  202.0446  182.3172  158.4496 C   0  0  0  0  0  0  0  0  0  0  0  0
  201.4588  182.4642  157.1717 C   0  0  0  0  0  0  0  0  0  0  0  0
  201.0707  181.3216  156.4721 C   0  0  0  0  0  0  0  0  0  0  0  0
  202.3122  183.4948  159.3778 C   0  0  0  0  0  0  0  0  0  0  0  0
  201.0874  184.2290  159.7782 N   0  0  0  0  0  0  0  0  0  0  0  0
  200.4009  184.9130  158.6529 C   0  0  0  0  0  0  0  0  0  0  0  0
  199.1693  185.6224  159.1165 C   0  0  0  0  0  0  0  0  0  0  0  0
  197.9584  184.9041  159.2921 C   0  0  0  0  0  0  0  0  0  0  0  0
  197.9116  183.5016  159.0518 N   0  0  0  0  0  0  0  0  0  0  0  0
  196.6541  182.7706  159.1086 C   0  0  0  0  0  0  0  0  0  0  0  0
  195.7526  183.0377  157.8926 C   0  0  0  0  0  0  0  0  0  0  0  0
  194.3245  182.8180  158.2113 N   0  0  0  0  0  0  0  0  0  0  0  0
  193.9789  181.4329  158.5681 C   0  0  0  0  0  0  0  0  0  0  0  0
  193.7281  183.8364  159.0925 C   0  0  0  0  0  0  0  0  0  0  0  0
  196.8108  185.6354  159.6675 C   0  0  0  0  0  0  0  0  0  0  0  0
  196.8593  187.0315  159.8539 C   0  0  0  0  0  0  0  0  0  0  0  0
  198.0616  187.7300  159.6458 C   0  0  0  0  0  0  0  0  0  0  0  0
  199.2180  187.0239  159.2765 C   0  0  0  0  0  0  0  0  0  0  0  0
  201.2107  177.6675  156.7144 C   0  0  0  0  0  0  0  0  0  0  0  0
  201.5757  176.6441  155.6718 C   0  0  0  0  0  0  0  0  0  0  0  0
  201.6924  176.9938  154.3089 C   0  0  0  0  0  0  0  0  0  0  0  0
  202.0587  176.0178  153.3691 C   0  0  0  0  0  0  0  0  0  0  0  0
  202.3156  174.6991  153.7899 C   0  0  0  0  0  0  0  0  0  0  0  0
  202.2169  174.3572  155.1525 C   0  0  0  0  0  0  0  0  0  0  0  0
  201.8517  175.3315  156.0952 C   0  0  0  0  0  0  0  0  0  0  0  0
  200.4411  183.5764  160.1993 H   0  0  0  0  0  0  0  0  0  0  0  0
  202.6022  179.1054  158.5838 H   0  0  0  0  0  0  0  0  0  0  0  0
  201.2313  183.4272  156.7334 H   0  0  0  0  0  0  0  0  0  0  0  0
  200.5158  181.4091  155.5461 H   0  0  0  0  0  0  0  0  0  0  0  0
  202.7943  183.1493  160.2924 H   0  0  0  0  0  0  0  0  0  0  0  0
  203.0303  184.1556  158.8968 H   0  0  0  0  0  0  0  0  0  0  0  0
  201.0880  185.5884  158.1315 H   0  0  0  0  0  0  0  0  0  0  0  0
  199.9849  184.2516  157.9062 H   0  0  0  0  0  0  0  0  0  0  0  0
  198.6664  183.0026  158.6044 H   0  0  0  0  0  0  0  0  0  0  0  0
  196.8426  181.6971  159.1788 H   0  0  0  0  0  0  0  0  0  0  0  0
  196.1767  183.0152  160.0510 H   0  0  0  0  0  0  0  0  0  0  0  0
  195.8697  184.0479  157.4985 H   0  0  0  0  0  0  0  0  0  0  0  0
  196.0413  182.3973  157.0574 H   0  0  0  0  0  0  0  0  0  0  0  0
  194.4705  181.1644  159.5022 H   0  0  0  0  0  0  0  0  0  0  0  0
  194.3048  180.7531  157.7815 H   0  0  0  0  0  0  0  0  0  0  0  0
  192.9001  181.3053  158.6853 H   0  0  0  0  0  0  0  0  0  0  0  0
  194.1610  183.7822  160.0917 H   0  0  0  0  0  0  0  0  0  0  0  0
  192.6497  183.6982  159.2073 H   0  0  0  0  0  0  0  0  0  0  0  0
  193.9353  184.8314  158.6889 H   0  0  0  0  0  0  0  0  0  0  0  0
  195.8662  185.1536  159.8442 H   0  0  0  0  0  0  0  0  0  0  0  0
  195.9791  187.5568  160.1814 H   0  0  0  0  0  0  0  0  0  0  0  0
  198.1264  188.7978  159.8212 H   0  0  0  0  0  0  0  0  0  0  0  0
  200.1502  187.5445  159.1054 H   0  0  0  0  0  0  0  0  0  0  0  0
  201.9426  177.5211  157.5060 H   0  0  0  0  0  0  0  0  0  0  0  0
  200.2230  177.4626  157.1272 H   0  0  0  0  0  0  0  0  0  0  0  0
  201.5075  178.0060  153.9768 H   0  0  0  0  0  0  0  0  0  0  0  0
  202.1364  176.2890  152.3277 H   0  0  0  0  0  0  0  0  0  0  0  0
  202.5898  173.9502  153.0645 H   0  0  0  0  0  0  0  0  0  0  0  0
  202.4149  173.3456  155.4705 H   0  0  0  0  0  0  0  0  0  0  0  0
  201.7830  175.0763  157.1433 H   0  0  0  0  0  0  0  0  0  0  0  0
  193.9408  182.9507  157.2584 H   0  0  0  0  0  0  0  0  0  0  0  0
  201.3432  184.9097  160.4875 H   0  0  0  0  0  0  0  0  0  0  0  0
  1  2  1  0
  1 23  1  0
  2  3  1  0
  2  7  2  0
  3  4  2  0
  3 31  1  0
  4  5  1  0
  5  6  2  0
  5  8  1  0
  6  7  1  0
  6 32  1  0
  7 33  1  0
  8  9  1  0
  8 34  1  0
  8 35  1  0
  9 10  1  0
  9 30  1  0
  9 61  1  0
 10 11  1  0
 10 36  1  0
 10 37  1  0
 11 12  1  0
 11 22  2  0
 12 13  1  0
 12 19  2  0
 13 14  1  0
 13 38  1  0
 14 15  1  0
 14 39  1  0
 14 40  1  0
 15 16  1  0
 15 41  1  0
 15 42  1  0
 16 17  1  0
 16 18  1  0
 16 60  1  0
 17 43  1  0
 17 44  1  0
 17 45  1  0
 18 46  1  0
 18 47  1  0
 18 48  1  0
 19 20  1  0
 19 49  1  0
 20 21  2  0
 20 50  1  0
 21 22  1  0
 21 51  1  0
 22 52  1  0
 23 24  1  0
 23 53  1  0
 23 54  1  0
 24 25  2  0
 24 29  1  0
 25 26  1  0
 25 55  1  0
 26 27  2  0
 26 56  1  0
 27 28  1  0
 27 57  1  0
 28 29  2  0
 28 58  1  0
 29 59  1  0
M  CHG  2   9   1  16   1
M  END
>  <s_epik_cmdline>  (38) 
J2VwaWtfcHl0aG9uJywgJy1waCcsICc3LjAwMDAwMCcsICctcGh0JywgJzIuMDAwMDAwJywgJy1tcycsICcxNicsICctdG4nLCAnOCcsICctbWEnLCAnMjAwJywgJy1pbWFlJywgJzxpbmZpbGUubWFlPicsICctb21hZScsICc8b3V0ZmlsZS5tYWU+Jw==

>  <s_epik_input>  (38) 
W2NIXTFbY0hdW2NIXVtjSF1bY0hdYzFbQ0gyXU9jMltjSF1uYyhbY0hdW2NIXTIpW0NIMl1bTkhdW0NIMl1jM2MoW2NIXVtjSF1bY0hdW2NIXTMpW05IXVtDSDJdW0NIMl1OKFtDSDNdKVtDSDNd

>  <s_i_glide_gridfile>  (38) 
ATP-Grid

>  <s_lp_Force_Field>  (38) 
OPLS_2005

>  <s_lp_Variant>  (38) 
m_270004bbb____25289958____24721296-1

>  <s_lp_label>  (38) 
1166_sdstereoexpander_1_neutralizer_1_epik_1_stereoizer_1

>  <s_m_source_file>  (38) 
ATP-VSW-LIGPREP-001-in.maegz

>  <s_sd_BIOSOLVEIT.INFINISEE\_QUERY\_NAME>  (38) 
Ref-Lig

>  <s_sd_BIOSOLVEIT.INFINISEE\_QUERY\_SMILES>  (38) 
S(c1nc2c(cc1C[NH2+]Cc3ccc(cc3)C[NH+](C)C)cccc2)Cc4ccccc4

>  <s_sd_BIOSOLVEIT.INFINISEE\_REACTION\_NAME>  (38) 
m_270004bbb

>  <s_sd_BIOSOLVEIT.INFINISEE\_REAGENT1\_SMILES>  (38) 
[R1*]NCc1c(NCCN(C)C)cccc1

>  <s_sd_BIOSOLVEIT.INFINISEE\_REAGENT2\_SMILES>  (38) 
[R1*]Cc1ncc(OCc2ccccc2)cc1

>  <s_sd_BIOSOLVEIT.INFINISEE\_SPACE>  (38) 
REALSpace_44bn_2023-08

>  <s_vsw_compound_code>  (38) 
37281

>  <s_vsw_variant>  (38) 
37281-1

>  <r_epik_Charging_Adjusted_Penalty>  (38) 
0.16150969318607999

>  <r_epik_Ionization_Penalty>  (38) 
0.081500000000000003

>  <r_epik_Ionization_Penalty_Charging>  (38) 
0.0814

>  <r_epik_Ionization_Penalty_Neutral>  (38) 
0.0001

>  <r_epik_State_Penalty>  (38) 
0.080100000000000005

>  <r_i_docking_score>  (38) 
-4.35664288623461

>  <r_i_glide_ecoul>  (38) 
-11.375002861022899

>  <r_i_glide_eff_state_penalty>  (38) 
0.080100000000000005

>  <r_i_glide_einternal>  (38) 
6.7949233055114702

>  <r_i_glide_emodel>  (38) 
-54.490266450459202

>  <r_i_glide_energy>  (38) 
-40.440466880798297

>  <r_i_glide_erotb>  (38) 
1.2672037968318799

>  <r_i_glide_esite>  (38) 
-0.10000000000000001

>  <r_i_glide_evdw>  (38) 
-29.065464019775401

>  <r_i_glide_gscore>  (38) 
-4.4367428862346099

>  <r_i_glide_hbond>  (38) 
-0.20000000000000001

>  <r_i_glide_ligand_efficiency>  (38) 
-0.150229065042573

>  <r_i_glide_ligand_efficiency_ln>  (38) 
-0.99756074601616795

>  <r_i_glide_ligand_efficiency_sa>  (38) 
-0.46155128371929

>  <r_i_glide_lipo>  (38) 
-1.51172132565155

>  <r_i_glide_metal>  (38) 
-0

>  <r_i_glide_rewards>  (38) 
-0.73270172727272598

>  <r_lp_Energy>  (38) 
27.778396000000001

>  <r_lp_tautomer_probability>  (38) 
1

>  <r_qp_ACxDN^.5/SA>  (38) 
0.0108658

>  <r_qp_CIQPlogS>  (38) 
-3.593

>  <r_qp_EA(eV)>  (38) 
0.087999999999999995

>  <r_qp_FISA>  (38) 
34.241

>  <r_qp_FOSA>  (38) 
301.69099999999997

>  <r_qp_IP(eV)>  (38) 
7.8819999999999997

>  <r_qp_Jm>  (38) 
0.0043793297489081902

>  <r_qp_PISA>  (38) 
477.51999999999998

>  <r_qp_PSA>  (38) 
49.948

>  <r_qp_PercentHumanOralAbsorption>  (38) 
100

>  <r_qp_QPPCaco>  (38) 
291.73899999999998

>  <r_qp_QPPMDCK>  (38) 
159.89400000000001

>  <r_qp_QPlogBB>  (38) 
0.29099999999999998

>  <r_qp_QPlogHERG>  (38) 
-9.3130000000000006

>  <r_qp_QPlogKhsa>  (38) 
0.69099999999999995

>  <r_qp_QPlogKp>  (38) 
-3.5369999999999999

>  <r_qp_QPlogPC16>  (38) 
15.763

>  <r_qp_QPlogPo/w>  (38) 
4.6390000000000002

>  <r_qp_QPlogPoct>  (38) 
21.760999999999999

>  <r_qp_QPlogPw>  (38) 
11.817

>  <r_qp_QPlogS>  (38) 
-4.4130000000000003

>  <r_qp_QPpolrz>  (38) 
48.006

>  <r_qp_SASA>  (38) 
813.45100000000002

>  <r_qp_SAamideO>  (38) 
0

>  <r_qp_SAfluorine>  (38) 
0

>  <r_qp_WPSA>  (38) 
0

>  <r_qp_accptHB>  (38) 
6.25

>  <r_qp_dip^2/V>  (38) 
0.0066217999999999997

>  <r_qp_dipole>  (38) 
3.0619999999999998

>  <r_qp_donorHB>  (38) 
2

>  <r_qp_glob>  (38) 
0.74962810000000002

>  <r_qp_mol_MW>  (38) 
390.52699999999999

>  <r_qp_volume>  (38) 
1415.855

>  <r_sd_BIOSOLVEIT.INFINISEE\_FTREES\_SIMILARITY>  (38) 
0.91200000000000003

>  <r_sd_BIOSOLVEIT.LOGP>  (38) 
1.4805999999999999

>  <r_sd_BIOSOLVEIT.MOLECULAR\_WEIGHT>  (38) 
392.54399999999998

>  <r_sd_BIOSOLVEIT.TPSA>  (38) 
55.200000000000003

>  <i_epik_Tot_Q>  (38) 
2

>  <i_epik_Tot_abs_Q>  (38) 
2

>  <i_f3d_flags>  (38) 
0

>  <i_i_glide_confnum>  (38) 
6

>  <i_i_glide_lignum>  (38) 
288

>  <i_i_glide_posenum>  (38) 
10

>  <i_i_glide_rotatable_bonds>  (38) 
11

>  <i_lp_mmshare_version>  (38) 
65135

>  <i_m_ct_format>  (38) 
2

>  <i_m_source_file_index>  (38) 
1166

>  <i_qp_#NandO>  (38) 
5

>  <i_qp_#acid>  (38) 
0

>  <i_qp_#amide>  (38) 
0

>  <i_qp_#amidine>  (38) 
0

>  <i_qp_#amine>  (38) 
2

>  <i_qp_#in34>  (38) 
0

>  <i_qp_#in56>  (38) 
18

>  <i_qp_#metab>  (38) 
11

>  <i_qp_#nonHatm>  (38) 
29

>  <i_qp_#noncon>  (38) 
0

>  <i_qp_#ringatoms>  (38) 
18

>  <i_qp_#rotor>  (38) 
11

>  <i_qp_#rtvFG>  (38) 
0

>  <i_qp_#stars>  (38) 
4

>  <i_qp_CNS>  (38) 
1

>  <i_qp_HumanOralAbsorption>  (38) 
1

>  <i_qp_RuleOfFive>  (38) 
0

>  <i_qp_RuleOfThree>  (38) 
1

>  <i_sd_BIOSOLVEIT.INFINISEE\_REAGENT1\_NAME>  (38) 
25289958

>  <i_sd_BIOSOLVEIT.INFINISEE\_REAGENT2\_NAME>  (38) 
24721296

>  <i_sd_BIOSOLVEIT.INFINISEE\_RESULT\_RANK>  (38) 
37915

>  <i_sd_version>  (38) 
0

>  <b_lp_Chiralities_Consistent>  (38) 
1

>  <b_sd_chiral_flag>  (38) 
0

>  <canonical_id>  (38) 
ATP-HTVS-B278BB2953A5

>  <compound_code>  (38) 
37281

>  <title>  (38) 
m_270004bbb____25289958____24721296

>  <variant>  (38) 
37281-1

>  <source_file>  (38) 
运行/运行/ATP-VSW/ATP-VSW-DOCK_HTVS_1-001_lib/ATP-VSW-DOCK_HTVS_1-001_lib

>  <canonical_smiles>  (38) 
C[NH+](C)CCNc1ccccc1C[NH2+]Cc1ccc(OCc2ccccc2)cn1

>  <scaffold>  (38) 
c1ccc(C[NH2+]Cc2ccc(OCc3ccccc3)cn2)cc1

>  <molecular_formula>  (38) 
C24H32N4O+2

>  <acquisition_id_v2>  (38) 
ATP-ACQ2-0038

>  <selection_arm_v2>  (38) 
local_structure_bridge

>  <priority_v2>  (38) 
P1

$$$$
ATP-ACQ2-0039
     RDKit          3D

 63 66  0  0  0  0  0  0  0  0999 V2000
  196.7403  183.5077  155.5333 N   0  0  0  0  0  0  0  0  0  0  0  0
  196.6819  182.2010  155.8943 C   0  0  0  0  0  0  0  0  0  0  0  0
  195.9781  181.8196  157.0553 N   0  0  0  0  0  0  0  0  0  0  0  0
  195.6830  182.8284  158.0997 C   0  0  2  0  0  0  0  0  0  0  0  0
  196.8950  183.6459  158.5541 C   0  0  0  0  0  0  0  0  0  0  0  0
  196.7808  184.9802  159.0088 C   0  0  0  0  0  0  0  0  0  0  0  0
  195.5373  185.6132  159.1212 N   0  0  0  0  0  0  0  0  0  0  0  0
  197.9456  185.7074  159.3542 C   0  0  0  0  0  0  0  0  0  0  0  0
  199.2196  185.1167  159.2527 C   0  0  0  0  0  0  0  0  0  0  0  0
  199.3365  183.7854  158.8224 C   0  0  0  0  0  0  0  0  0  0  0  0
  198.1755  183.0581  158.5083 C   0  0  0  0  0  0  0  0  0  0  0  0
  195.0328  182.1329  159.2941 C   0  0  0  0  0  0  0  0  0  0  0  0
  197.3611  181.2216  155.1137 C   0  0  0  0  0  0  0  0  0  0  0  0
  198.1354  181.5605  154.0811 N   0  0  0  0  0  0  0  0  0  0  0  0
  198.2582  182.8780  153.7712 C   0  0  0  0  0  0  0  0  0  0  0  0
  197.5207  183.8578  154.5010 C   0  0  0  0  0  0  0  0  0  0  0  0
  197.6428  185.2135  154.1425 C   0  0  0  0  0  0  0  0  0  0  0  0
  198.4576  185.6115  153.0666 C   0  0  0  0  0  0  0  0  0  0  0  0
  199.2480  184.6550  152.4049 C   0  0  0  0  0  0  0  0  0  0  0  0
  199.1577  183.2988  152.7657 C   0  0  0  0  0  0  0  0  0  0  0  0
  197.4862  179.8857  155.5797 N   0  0  0  0  0  0  0  0  0  0  0  0
  198.7866  179.2282  155.6269 C   0  0  0  0  0  0  0  0  0  0  0  0
  200.1115  180.0060  155.8635 C   0  0  0  0  0  0  0  0  0  0  0  0
  201.4019  179.3872  155.7113 C   0  0  0  0  0  0  0  0  0  0  0  0
  202.6053  180.1634  155.8505 C   0  0  0  0  0  0  0  0  0  0  0  0
  202.5395  181.5529  156.1320 C   0  0  0  0  0  0  0  0  0  0  0  0
  201.2693  182.1314  156.3230 C   0  0  0  0  0  0  0  0  0  0  0  0
  200.1056  181.3654  156.2247 C   0  0  0  0  0  0  0  0  0  0  0  0
  201.5680  177.8881  155.3973 C   0  0  0  0  0  0  0  0  0  0  0  0
  201.5475  177.0323  156.6171 N   0  0  0  0  0  0  0  0  0  0  0  0
  200.3126  177.1579  157.4265 C   0  0  0  0  0  0  0  0  0  0  0  0
  201.8349  175.6063  156.3320 C   0  0  0  0  0  0  0  0  0  0  0  0
  195.9263  180.8510  157.3289 H   0  0  0  0  0  0  0  0  0  0  0  0
  194.9520  183.4998  157.6702 H   0  0  0  0  0  0  0  0  0  0  0  0
  195.5008  186.6105  159.2738 H   0  0  0  0  0  0  0  0  0  0  0  0
  194.7237  185.2092  158.6805 H   0  0  0  0  0  0  0  0  0  0  0  0
  197.8634  186.7242  159.7072 H   0  0  0  0  0  0  0  0  0  0  0  0
  200.1069  185.6729  159.5224 H   0  0  0  0  0  0  0  0  0  0  0  0
  200.3061  183.3195  158.7235 H   0  0  0  0  0  0  0  0  0  0  0  0
  198.2584  182.0351  158.1859 H   0  0  0  0  0  0  0  0  0  0  0  0
  194.7503  182.8678  160.0543 H   0  0  0  0  0  0  0  0  0  0  0  0
  195.7202  181.4163  159.7412 H   0  0  0  0  0  0  0  0  0  0  0  0
  194.1334  181.5878  159.0107 H   0  0  0  0  0  0  0  0  0  0  0  0
  197.0331  185.9482  154.6468 H   0  0  0  0  0  0  0  0  0  0  0  0
  198.4648  186.6470  152.7514 H   0  0  0  0  0  0  0  0  0  0  0  0
  199.8783  184.9566  151.5821 H   0  0  0  0  0  0  0  0  0  0  0  0
  199.7867  182.5721  152.2738 H   0  0  0  0  0  0  0  0  0  0  0  0
  196.9067  179.6420  156.3687 H   0  0  0  0  0  0  0  0  0  0  0  0
  198.6064  178.6163  156.5079 H   0  0  0  0  0  0  0  0  0  0  0  0
  198.8465  178.5713  154.7623 H   0  0  0  0  0  0  0  0  0  0  0  0
  203.5983  179.7054  155.7580 H   0  0  0  0  0  0  0  0  0  0  0  0
  203.4381  182.1743  156.2200 H   0  0  0  0  0  0  0  0  0  0  0  0
  201.1685  183.2014  156.4876 H   0  0  0  0  0  0  0  0  0  0  0  0
  199.1761  181.8842  156.4254 H   0  0  0  0  0  0  0  0  0  0  0  0
  200.8229  177.5480  154.6707 H   0  0  0  0  0  0  0  0  0  0  0  0
  202.5336  177.7402  154.8965 H   0  0  0  0  0  0  0  0  0  0  0  0
  199.4673  176.8167  156.8218 H   0  0  0  0  0  0  0  0  0  0  0  0
  200.1618  178.1854  157.7358 H   0  0  0  0  0  0  0  0  0  0  0  0
  200.3562  176.6349  158.3820 H   0  0  0  0  0  0  0  0  0  0  0  0
  201.0857  175.1934  155.6560 H   0  0  0  0  0  0  0  0  0  0  0  0
  201.8059  175.0359  157.2573 H   0  0  0  0  0  0  0  0  0  0  0  0
  202.8214  175.4807  155.8840 H   0  0  0  0  0  0  0  0  0  0  0  0
  202.3050  177.3677  157.1926 H   0  0  0  0  0  0  0  0  0  0  0  0
  1  2  2  0
  1 16  1  0
  2  3  1  0
  2 13  1  0
  3  4  1  0
  3 33  1  0
  4  5  1  0
  4 12  1  0
  4 34  1  6
  5  6  1  0
  5 11  2  0
  6  7  1  0
  6  8  2  0
  7 35  1  0
  7 36  1  0
  8  9  1  0
  8 37  1  0
  9 10  2  0
  9 38  1  0
 10 11  1  0
 10 39  1  0
 11 40  1  0
 12 41  1  0
 12 42  1  0
 12 43  1  0
 13 14  2  0
 13 21  1  0
 14 15  1  0
 15 16  1  0
 15 20  2  0
 16 17  2  0
 17 18  1  0
 17 44  1  0
 18 19  2  0
 18 45  1  0
 19 20  1  0
 19 46  1  0
 20 47  1  0
 21 22  1  0
 21 48  1  0
 22 23  1  0
 22 49  1  0
 22 50  1  0
 23 24  1  0
 23 28  2  0
 24 25  2  0
 24 29  1  0
 25 26  1  0
 25 51  1  0
 26 27  2  0
 26 52  1  0
 27 28  1  0
 27 53  1  0
 28 54  1  0
 29 30  1  0
 29 55  1  0
 29 56  1  0
 30 31  1  0
 30 32  1  0
 30 63  1  0
 31 57  1  0
 31 58  1  0
 31 59  1  0
 32 60  1  0
 32 61  1  0
 32 62  1  0
M  CHG  1  30   1
M  END
>  <s_epik_cmdline>  (39) 
J2VwaWtfcHl0aG9uJywgJy1waCcsICc3LjAwMDAwMCcsICctcGh0JywgJzIuMDAwMDAwJywgJy1tcycsICcxNicsICctdG4nLCAnOCcsICctbWEnLCAnMjAwJywgJy1pbWFlJywgJzxpbmZpbGUubWFlPicsICctb21hZScsICc8b3V0ZmlsZS5tYWU+Jw==

>  <s_epik_input>  (39) 
W2NIXTFbY0hdW2NIXVtjSF1jKFtOSDJdKWMxW0NASF0oW0NIM10pW05IXWMobmMoYzIzKVtjSF1bY0hdW2NIXVtjSF0zKWMobjIpW05IXVtDSDJdYzRjKFtDSDJdTihbQ0gzXSlbQ0gzXSlbY0hdW2NIXVtjSF1bY0hdNA==

>  <s_i_glide_gridfile>  (39) 
ATP-Grid

>  <s_lp_Force_Field>  (39) 
OPLS_2005

>  <s_lp_Variant>  (39) 
m_282030aaa____21927700____23157418____21952560-2

>  <s_lp_label>  (39) 
1098_sdstereoexpander_2_neutralizer_1_epik_1_stereoizer_1

>  <s_m_source_file>  (39) 
ATP-VSW-LIGPREP-001-in.maegz

>  <s_sd_BIOSOLVEIT.INFINISEE\_QUERY\_NAME>  (39) 
Ref-Lig

>  <s_sd_BIOSOLVEIT.INFINISEE\_QUERY\_SMILES>  (39) 
S(c1nc2c(cc1C[NH2+]Cc3ccc(cc3)C[NH+](C)C)cccc2)Cc4ccccc4

>  <s_sd_BIOSOLVEIT.INFINISEE\_REACTION\_NAME>  (39) 
m_282030aaa

>  <s_sd_BIOSOLVEIT.INFINISEE\_REAGENT1\_SMILES>  (39) 
[R1*]NCc1c(cccc1)CN(C)C

>  <s_sd_BIOSOLVEIT.INFINISEE\_REAGENT2\_SMILES>  (39) 
[R1*]c1nc2c(nc1[R2*])cccc2

>  <s_sd_BIOSOLVEIT.INFINISEE\_REAGENT3\_SMILES>  (39) 
[R2*]NC(c1c(N)cccc1)C

>  <s_sd_BIOSOLVEIT.INFINISEE\_SPACE>  (39) 
REALSpace_44bn_2023-08

>  <s_vsw_compound_code>  (39) 
35105

>  <s_vsw_variant>  (39) 
35105-2

>  <r_epik_Charging_Adjusted_Penalty>  (39) 
0.082044668852174304

>  <r_epik_Ionization_Penalty>  (39) 
0.0441

>  <r_epik_Ionization_Penalty_Charging>  (39) 
0.038300000000000001

>  <r_epik_Ionization_Penalty_Neutral>  (39) 
0.0057000000000000002

>  <r_epik_State_Penalty>  (39) 
0.043700000000000003

>  <r_i_docking_score>  (39) 
-4.6685886664327398

>  <r_i_glide_ecoul>  (39) 
-13.072435379028301

>  <r_i_glide_eff_state_penalty>  (39) 
0.043700000000000003

>  <r_i_glide_einternal>  (39) 
4.7540798187255904

>  <r_i_glide_emodel>  (39) 
-58.614355774824702

>  <r_i_glide_energy>  (39) 
-43.553596496582003

>  <r_i_glide_erotb>  (39) 
0.76030325106258601

>  <r_i_glide_esite>  (39) 
-0.20000000000000001

>  <r_i_glide_evdw>  (39) 
-30.4811611175537

>  <r_i_glide_gscore>  (39) 
-4.7122886664327401

>  <r_i_glide_hbond>  (39) 
-0.30399999999999999

>  <r_i_glide_ligand_efficiency>  (39) 
-0.14589339582602301

>  <r_i_glide_ligand_efficiency_ln>  (39) 
-1.04542426333493

>  <r_i_glide_ligand_efficiency_sa>  (39) 
-0.463182659483794

>  <r_i_glide_lipo>  (39) 
-0.76479041839975404

>  <r_i_glide_metal>  (39) 
-0

>  <r_i_glide_rewards>  (39) 
-0.71887813636363496

>  <r_lp_Energy>  (39) 
29.241675000000001

>  <r_qp_ACxDN^.5/SA>  (39) 
0.016039600000000001

>  <r_qp_CIQPlogS>  (39) 
-5.5439999999999996

>  <r_qp_EA(eV)>  (39) 
0.78200000000000003

>  <r_qp_FISA>  (39) 
67.304000000000002

>  <r_qp_FOSA>  (39) 
251.48599999999999

>  <r_qp_IP(eV)>  (39) 
8.1059999999999999

>  <r_qp_Jm>  (39) 
0.14570838141769499

>  <r_qp_PISA>  (39) 
381.03899999999999

>  <r_qp_PSA>  (39) 
68.004000000000005

>  <r_qp_PercentHumanOralAbsorption>  (39) 
100

>  <r_qp_QPPCaco>  (39) 
568.27499999999998

>  <r_qp_QPPMDCK>  (39) 
297.12299999999999

>  <r_qp_QPlogBB>  (39) 
-0.20599999999999999

>  <r_qp_QPlogHERG>  (39) 
-6.5490000000000004

>  <r_qp_QPlogKhsa>  (39) 
0.62

>  <r_qp_QPlogKp>  (39) 
-2.6160000000000001

>  <r_qp_QPlogPC16>  (39) 
14.727

>  <r_qp_QPlogPo/w>  (39) 
4.343

>  <r_qp_QPlogPoct>  (39) 
23.613

>  <r_qp_QPlogPw>  (39) 
13.504

>  <r_qp_QPlogS>  (39) 
-3.8500000000000001

>  <r_qp_QPpolrz>  (39) 
46.024999999999999

>  <r_qp_SASA>  (39) 
699.82799999999997

>  <r_qp_SAamideO>  (39) 
0

>  <r_qp_SAfluorine>  (39) 
0

>  <r_qp_WPSA>  (39) 
0

>  <r_qp_accptHB>  (39) 
6

>  <r_qp_dip^2/V>  (39) 
0.0057155000000000001

>  <r_qp_dipole>  (39) 
2.7850000000000001

>  <r_qp_donorHB>  (39) 
3.5

>  <r_qp_glob>  (39) 
0.8471417

>  <r_qp_mol_MW>  (39) 
426.56299999999999

>  <r_qp_volume>  (39) 
1357.2940000000001

>  <r_sd_BIOSOLVEIT.INFINISEE\_FTREES\_SIMILARITY>  (39) 
0.91300000000000003

>  <r_sd_BIOSOLVEIT.LOGP>  (39) 
3.6417000000000002

>  <r_sd_BIOSOLVEIT.MOLECULAR\_WEIGHT>  (39) 
427.57299999999998

>  <r_sd_BIOSOLVEIT.TPSA>  (39) 
80.299999999999997

>  <i_epik_Tot_Q>  (39) 
1

>  <i_epik_Tot_abs_Q>  (39) 
1

>  <i_f3d_flags>  (39) 
0

>  <i_i_glide_confnum>  (39) 
10

>  <i_i_glide_lignum>  (39) 
255

>  <i_i_glide_posenum>  (39) 
20

>  <i_i_glide_rotatable_bonds>  (39) 
8

>  <i_lp_mmshare_version>  (39) 
65135

>  <i_m_ct_format>  (39) 
2

>  <i_m_source_file_index>  (39) 
1098

>  <i_qp_#NandO>  (39) 
6

>  <i_qp_#acid>  (39) 
0

>  <i_qp_#amide>  (39) 
0

>  <i_qp_#amidine>  (39) 
0

>  <i_qp_#amine>  (39) 
1

>  <i_qp_#in34>  (39) 
0

>  <i_qp_#in56>  (39) 
22

>  <i_qp_#metab>  (39) 
7

>  <i_qp_#nonHatm>  (39) 
32

>  <i_qp_#noncon>  (39) 
0

>  <i_qp_#ringatoms>  (39) 
22

>  <i_qp_#rotor>  (39) 
9

>  <i_qp_#rtvFG>  (39) 
0

>  <i_qp_#stars>  (39) 
0

>  <i_qp_CNS>  (39) 
0

>  <i_qp_HumanOralAbsorption>  (39) 
3

>  <i_qp_RuleOfFive>  (39) 
0

>  <i_qp_RuleOfThree>  (39) 
1

>  <i_sd_BIOSOLVEIT.INFINISEE\_REAGENT1\_NAME>  (39) 
21927700

>  <i_sd_BIOSOLVEIT.INFINISEE\_REAGENT2\_NAME>  (39) 
23157418

>  <i_sd_BIOSOLVEIT.INFINISEE\_REAGENT3\_NAME>  (39) 
21952560

>  <i_sd_BIOSOLVEIT.INFINISEE\_RESULT\_RANK>  (39) 
33086

>  <i_sd_version>  (39) 
0

>  <b_lp_Chiralities_Consistent>  (39) 
1

>  <b_sd_chiral_flag>  (39) 
0

>  <canonical_id>  (39) 
ATP-HTVS-6168063B3267

>  <compound_code>  (39) 
35105

>  <title>  (39) 
m_282030aaa____21927700____23157418____21952560

>  <variant>  (39) 
35105-2

>  <source_file>  (39) 
运行/运行/ATP-VSW/ATP-VSW-DOCK_HTVS_1-001_lib/ATP-VSW-DOCK_HTVS_1-001_lib

>  <canonical_smiles>  (39) 
C[C@H](Nc1nc2ccccc2nc1NCc1ccccc1C[NH+](C)C)c1ccccc1N

>  <scaffold>  (39) 
c1ccc(CNc2nc3ccccc3nc2NCc2ccccc2)cc1

>  <molecular_formula>  (39) 
C26H31N6+

>  <acquisition_id_v2>  (39) 
ATP-ACQ2-0039

>  <selection_arm_v2>  (39) 
scaffold_score_exploration

>  <priority_v2>  (39) 
P1

$$$$
ATP-ACQ2-0040
     RDKit          3D

 56 59  0  0  0  0  0  0  0  0999 V2000
  197.5497  184.6430  146.3970 Cl  0  0  0  0  0  0  0  0  0  0  0  0
  198.0260  184.7503  148.0513 C   0  0  0  0  0  0  0  0  0  0  0  0
  197.2960  184.0969  149.0628 C   0  0  0  0  0  0  0  0  0  0  0  0
  197.7068  184.1975  150.4150 C   0  0  0  0  0  0  0  0  0  0  0  0
  198.8564  184.9590  150.7326 C   0  0  0  0  0  0  0  0  0  0  0  0
  199.5762  185.6163  149.7202 C   0  0  0  0  0  0  0  0  0  0  0  0
  199.1627  185.5091  148.3813 C   0  0  0  0  0  0  0  0  0  0  0  0
  196.9440  183.5036  151.5404 C   0  0  1  0  0  0  0  0  0  0  0  0
  195.5524  183.5025  151.3341 O   0  0  0  0  0  0  0  0  0  0  0  0
  197.4337  182.0557  151.7286 C   0  0  0  0  0  0  0  0  0  0  0  0
  197.6007  181.3313  150.7456 O   0  0  0  0  0  0  0  0  0  0  0  0
  197.6139  181.6646  153.0045 N   0  0  0  0  0  0  0  0  0  0  0  0
  198.2180  180.4841  153.5131 C   0  0  0  0  0  0  0  0  0  0  0  0
  198.9462  179.6464  152.7384 N   0  0  0  0  0  0  0  0  0  0  0  0
  199.5618  178.5715  153.2729 C   0  0  0  0  0  0  0  0  0  0  0  0
  199.4699  178.2706  154.6555 C   0  0  0  0  0  0  0  0  0  0  0  0
  198.7185  179.1245  155.4780 C   0  0  0  0  0  0  0  0  0  0  0  0
  198.0912  180.2479  154.9099 C   0  0  0  0  0  0  0  0  0  0  0  0
  197.3282  181.1056  155.8065 C   0  0  0  0  0  0  0  0  0  0  0  0
  196.7079  181.7896  156.5996 C   0  0  0  0  0  0  0  0  0  0  0  0
  195.9641  182.6204  157.5508 C   0  0  1  0  0  0  0  0  0  0  0  0
  194.7522  181.8419  157.8031 N   0  0  0  0  0  0  0  0  0  0  0  0
  196.7408  182.9506  158.8451 C   0  0  0  0  0  0  0  0  0  0  0  0
  196.3852  184.3100  159.4224 C   0  0  0  0  0  0  0  0  0  0  0  0
  195.1021  184.5807  159.9498 C   0  0  0  0  0  0  0  0  0  0  0  0
  194.8144  185.8435  160.5032 C   0  0  0  0  0  0  0  0  0  0  0  0
  193.5889  186.0968  161.0181 F   0  0  0  0  0  0  0  0  0  0  0  0
  195.7997  186.8448  160.5317 C   0  0  0  0  0  0  0  0  0  0  0  0
  197.0744  186.5844  159.9991 C   0  0  0  0  0  0  0  0  0  0  0  0
  197.3672  185.3249  159.4457 C   0  0  0  0  0  0  0  0  0  0  0  0
  200.0767  177.1205  155.1941 C   0  0  0  0  0  0  0  0  0  0  0  0
  200.8065  176.2596  154.3559 C   0  0  0  0  0  0  0  0  0  0  0  0
  200.9241  176.5514  152.9843 C   0  0  0  0  0  0  0  0  0  0  0  0
  200.3070  177.7017  152.4521 C   0  0  0  0  0  0  0  0  0  0  0  0
  194.2613  181.8168  156.9058 H   0  0  0  0  0  0  0  0  0  0  0  0
  194.1436  182.2835  158.4741 H   0  0  0  0  0  0  0  0  0  0  0  0
  196.4224  183.5138  148.8090 H   0  0  0  0  0  0  0  0  0  0  0  0
  199.1844  185.0495  151.7588 H   0  0  0  0  0  0  0  0  0  0  0  0
  200.4441  186.2104  149.9712 H   0  0  0  0  0  0  0  0  0  0  0  0
  199.7132  186.0153  147.6040 H   0  0  0  0  0  0  0  0  0  0  0  0
  197.1218  184.0900  152.4452 H   0  0  0  0  0  0  0  0  0  0  0  0
  195.1142  183.4414  152.1909 H   0  0  0  0  0  0  0  0  0  0  0  0
  197.3413  182.3204  153.7159 H   0  0  0  0  0  0  0  0  0  0  0  0
  198.6005  178.9156  156.5346 H   0  0  0  0  0  0  0  0  0  0  0  0
  195.7022  183.5234  157.0005 H   0  0  0  0  0  0  0  0  0  0  0  0
  196.5745  182.1860  159.6001 H   0  0  0  0  0  0  0  0  0  0  0  0
  197.8172  182.9358  158.6620 H   0  0  0  0  0  0  0  0  0  0  0  0
  194.3281  183.8291  159.9521 H   0  0  0  0  0  0  0  0  0  0  0  0
  195.5860  187.8041  160.9762 H   0  0  0  0  0  0  0  0  0  0  0  0
  197.8403  187.3454  160.0451 H   0  0  0  0  0  0  0  0  0  0  0  0
  198.3609  185.1353  159.0616 H   0  0  0  0  0  0  0  0  0  0  0  0
  199.9698  176.8912  156.2455 H   0  0  0  0  0  0  0  0  0  0  0  0
  201.2791  175.3774  154.7631 H   0  0  0  0  0  0  0  0  0  0  0  0
  201.4867  175.8927  152.3384 H   0  0  0  0  0  0  0  0  0  0  0  0
  200.3884  177.9223  151.3987 H   0  0  0  0  0  0  0  0  0  0  0  0
  195.0180  180.8837  158.0629 H   0  0  0  0  0  0  0  0  0  0  0  0
  1  2  1  0
  2  3  2  0
  2  7  1  0
  3  4  1  0
  3 37  1  0
  4  5  2  0
  4  8  1  0
  5  6  1  0
  5 38  1  0
  6  7  2  0
  6 39  1  0
  7 40  1  0
  8  9  1  0
  8 10  1  0
  8 41  1  1
  9 42  1  0
 10 11  2  0
 10 12  1  0
 12 13  1  0
 12 43  1  0
 13 14  2  0
 13 18  1  0
 14 15  1  0
 15 16  1  0
 15 34  2  0
 16 17  1  0
 16 31  2  0
 17 18  2  0
 17 44  1  0
 18 19  1  0
 19 20  3  0
 20 21  1  0
 21 22  1  0
 21 23  1  0
 21 45  1  6
 22 35  1  0
 22 36  1  0
 22 56  1  0
 23 24  1  0
 23 46  1  0
 23 47  1  0
 24 25  1  0
 24 30  2  0
 25 26  2  0
 25 48  1  0
 26 27  1  0
 26 28  1  0
 28 29  2  0
 28 49  1  0
 29 30  1  0
 29 50  1  0
 30 51  1  0
 31 32  1  0
 31 52  1  0
 32 33  2  0
 32 53  1  0
 33 34  1  0
 33 54  1  0
 34 55  1  0
M  CHG  1  22   1
M  END
>  <s_epik_cmdline>  (40) 
J2VwaWtfcHl0aG9uJywgJy1waCcsICc3LjAwMDAwMCcsICctcGh0JywgJzIuMDAwMDAwJywgJy1tcycsICcxNicsICctdG4nLCAnOCcsICctbWEnLCAnMjAwJywgJy1pbWFlJywgJzxpbmZpbGUubWFlPicsICctb21hZScsICc8b3V0ZmlsZS5tYWU+Jw==

>  <s_epik_input>  (40) 
Q2xjMVtjSF1jKFtjSF1bY0hdW2NIXTEpW0NAQEhdKFtPSF0pQyg9TylbTkhdYyhuMiljKFtjSF1jKGMyMylbY0hdW2NIXVtjSF1bY0hdMylDI0NbQ0BASF0oW05IMl0pW0NIMl1jNFtjSF1jKEYpW2NIXVtjSF1bY0hdNA==

>  <s_i_glide_gridfile>  (40) 
ATP-Grid

>  <s_lp_Force_Field>  (40) 
OPLS_2005

>  <s_lp_Variant>  (40) 
rxn503b____EMOL299973501____EMOL44466703____EMOL313110234-7

>  <s_lp_label>  (40) 
2609_sdstereoexpander_3_neutralizer_1_epik_2_stereoizer_1

>  <s_m_source_file>  (40) 
ATP-VSW-LIGPREP-002-in.maegz

>  <s_sd_BIOSOLVEIT.INFINISEE\_QUERY\_NAME>  (40) 
Ref-Lig

>  <s_sd_BIOSOLVEIT.INFINISEE\_QUERY\_SMILES>  (40) 
S(c1nc2c(cc1C[NH2+]Cc3ccc(cc3)C[NH+](C)C)cccc2)Cc4ccccc4

>  <s_sd_BIOSOLVEIT.INFINISEE\_REACTION\_NAME>  (40) 
rxn503b

>  <s_sd_BIOSOLVEIT.INFINISEE\_REAGENT1\_NAME>  (40) 
EMOL299973501

>  <s_sd_BIOSOLVEIT.INFINISEE\_REAGENT1\_SMILES>  (40) 
Clc1cc(ccc1)C(O)C(=O)O

>  <s_sd_BIOSOLVEIT.INFINISEE\_REAGENT2\_NAME>  (40) 
EMOL44466703

>  <s_sd_BIOSOLVEIT.INFINISEE\_REAGENT2\_SMILES>  (40) 
Brc1c(nc2c(c1)cccc2)N

>  <s_sd_BIOSOLVEIT.INFINISEE\_REAGENT3\_NAME>  (40) 
EMOL313110234

>  <s_sd_BIOSOLVEIT.INFINISEE\_REAGENT3\_SMILES>  (40) 
Fc1cc(ccc1)CC(N)C#C

>  <s_sd_BIOSOLVEIT.INFINISEE\_SPACE>  (40) 
eXplore_7tr_2022-12

>  <s_vsw_compound_code>  (40) 
83458

>  <s_vsw_variant>  (40) 
83458-7

>  <r_epik_Charging_Adjusted_Penalty>  (40) 
1.22591159016581

>  <r_epik_Ionization_Penalty>  (40) 
0.61399999999999999

>  <r_epik_Ionization_Penalty_Charging>  (40) 
0.61299999999999999

>  <r_epik_Ionization_Penalty_Neutral>  (40) 
0.001

>  <r_epik_State_Penalty>  (40) 
0.61299999999999999

>  <r_i_docking_score>  (40) 
-6.30624062048678

>  <r_i_glide_ecoul>  (40) 
-16.6838474273682

>  <r_i_glide_eff_state_penalty>  (40) 
0.61299999999999999

>  <r_i_glide_einternal>  (40) 
9.4511337280273402

>  <r_i_glide_emodel>  (40) 
-84.5025834650897

>  <r_i_glide_energy>  (40) 
-54.794511795043903

>  <r_i_glide_erotb>  (40) 
0.37684678745037198

>  <r_i_glide_esite>  (40) 
-0.107654852964943

>  <r_i_glide_evdw>  (40) 
-38.110664367675803

>  <r_i_glide_gscore>  (40) 
-6.9192406204867796

>  <r_i_glide_hbond>  (40) 
-0.37624178842851602

>  <r_i_glide_ligand_efficiency>  (40) 
-0.18547766530843501

>  <r_i_glide_ligand_efficiency_ln>  (40) 
-1.39322543712347

>  <r_i_glide_ligand_efficiency_sa>  (40) 
-0.60087563270029898

>  <r_i_glide_lipo>  (40) 
-2.22728998257928

>  <r_i_glide_metal>  (40) 
-0

>  <r_i_glide_rewards>  (40) 
-0.17679045147540401

>  <r_lp_Energy>  (40) 
24.221543

>  <r_qp_ACxDN^.5/SA>  (40) 
0.016886499999999999

>  <r_qp_CIQPlogS>  (40) 
-6.3499999999999996

>  <r_qp_EA(eV)>  (40) 
1.0369999999999999

>  <r_qp_FISA>  (40) 
120.645

>  <r_qp_FOSA>  (40) 
53.149000000000001

>  <r_qp_IP(eV)>  (40) 
8.7110000000000003

>  <r_qp_Jm>  (40) 
0.0034719268481180699

>  <r_qp_PISA>  (40) 
448.209

>  <r_qp_PSA>  (40) 
92.134

>  <r_qp_PercentHumanOralAbsorption>  (40) 
93.385999999999996

>  <r_qp_QPPCaco>  (40) 
177.304

>  <r_qp_QPPMDCK>  (40) 
347.86799999999999

>  <r_qp_QPlogBB>  (40) 
-0.502

>  <r_qp_QPlogHERG>  (40) 
-7.3150000000000004

>  <r_qp_QPlogKhsa>  (40) 
0.60099999999999998

>  <r_qp_QPlogKp>  (40) 
-3.363

>  <r_qp_QPlogPC16>  (40) 
16.254000000000001

>  <r_qp_QPlogPo/w>  (40) 
4.4729999999999999

>  <r_qp_QPlogPoct>  (40) 
26.875

>  <r_qp_QPlogPw>  (40) 
15.375

>  <r_qp_QPlogS>  (40) 
-4.7729999999999997

>  <r_qp_QPpolrz>  (40) 
47.905000000000001

>  <r_qp_SASA>  (40) 
734.31299999999999

>  <r_qp_SAamideO>  (40) 
0

>  <r_qp_SAfluorine>  (40) 
40.725000000000001

>  <r_qp_WPSA>  (40) 
112.309

>  <r_qp_accptHB>  (40) 
6.2000000000000002

>  <r_qp_dip^2/V>  (40) 
0.074394100000000005

>  <r_qp_dipole>  (40) 
10.163

>  <r_qp_donorHB>  (40) 
4

>  <r_qp_glob>  (40) 
0.81958560000000003

>  <r_qp_mol_MW>  (40) 
473.93299999999999

>  <r_qp_volume>  (40) 
1388.2439999999999

>  <r_sd_BIOSOLVEIT.INFINISEE\_FTREES\_SIMILARITY>  (40) 
0.91100000000000003

>  <r_sd_BIOSOLVEIT.LOGP>  (40) 
3.9041000000000001

>  <r_sd_BIOSOLVEIT.MOLECULAR\_WEIGHT>  (40) 
474.94099999999997

>  <r_sd_BIOSOLVEIT.TPSA>  (40) 
89.859999999999999

>  <i_epik_Tot_Q>  (40) 
1

>  <i_epik_Tot_abs_Q>  (40) 
1

>  <i_f3d_flags>  (40) 
0

>  <i_i_glide_confnum>  (40) 
4

>  <i_i_glide_lignum>  (40) 
1190

>  <i_i_glide_posenum>  (40) 
16

>  <i_i_glide_rotatable_bonds>  (40) 
9

>  <i_lp_mmshare_version>  (40) 
65135

>  <i_m_ct_format>  (40) 
2

>  <i_m_source_file_index>  (40) 
2609

>  <i_qp_#NandO>  (40) 
5

>  <i_qp_#acid>  (40) 
0

>  <i_qp_#amide>  (40) 
0

>  <i_qp_#amidine>  (40) 
0

>  <i_qp_#amine>  (40) 
1

>  <i_qp_#in34>  (40) 
0

>  <i_qp_#in56>  (40) 
22

>  <i_qp_#metab>  (40) 
6

>  <i_qp_#nonHatm>  (40) 
34

>  <i_qp_#noncon>  (40) 
0

>  <i_qp_#ringatoms>  (40) 
22

>  <i_qp_#rotor>  (40) 
9

>  <i_qp_#rtvFG>  (40) 
0

>  <i_qp_#stars>  (40) 
0

>  <i_qp_CNS>  (40) 
0

>  <i_qp_HumanOralAbsorption>  (40) 
3

>  <i_qp_RuleOfFive>  (40) 
0

>  <i_qp_RuleOfThree>  (40) 
0

>  <i_sd_BIOSOLVEIT.INFINISEE\_RESULT\_RANK>  (40) 
42289

>  <i_sd_version>  (40) 
0

>  <b_lp_Chiralities_Consistent>  (40) 
1

>  <b_sd_chiral_flag>  (40) 
0

>  <canonical_id>  (40) 
ATP-HTVS-8F383301D999

>  <compound_code>  (40) 
83458

>  <title>  (40) 
rxn503b____EMOL299973501____EMOL44466703____EMOL313110234

>  <variant>  (40) 
83458-7

>  <source_file>  (40) 
运行/运行/ATP-VSW/ATP-VSW-DOCK_HTVS_1-002_lib.maegz

>  <canonical_smiles>  (40) 
[NH3+][C@H](C#Cc1cc2ccccc2nc1NC(=O)[C@H](O)c1cccc(Cl)c1)Cc1cccc(F)c1

>  <scaffold>  (40) 
O=C(Cc1ccccc1)Nc1nc2ccccc2cc1C#CCCc1ccccc1

>  <molecular_formula>  (40) 
C27H22ClFN3O2+

>  <acquisition_id_v2>  (40) 
ATP-ACQ2-0040

>  <selection_arm_v2>  (40) 
exploitation

>  <priority_v2>  (40) 
P1

$$$$
ATP-ACQ2-0041
     RDKit          3D

 56 58  0  0  0  0  0  0  0  0999 V2000
  200.3519  184.7537  159.6888 S   0  0  0  0  0  0  0  0  0  0  0  0
  199.2049  183.7260  158.8621 C   0  0  0  0  0  0  0  0  0  0  0  0
  197.8027  183.8125  159.3326 C   0  0  0  0  0  0  0  0  0  0  0  0
  197.4985  183.5682  160.4973 O   0  0  0  0  0  0  0  0  0  0  0  0
  196.8792  184.1718  158.4274 N   0  0  0  0  0  0  0  0  0  0  0  0
  197.0741  185.3467  157.6635 C   0  0  0  0  0  0  0  0  0  0  0  0
  196.8211  186.6229  158.2302 C   0  0  0  0  0  0  0  0  0  0  0  0
  197.0409  187.7796  157.4528 C   0  0  0  0  0  0  0  0  0  0  0  0
  197.5167  187.6626  156.1360 C   0  0  0  0  0  0  0  0  0  0  0  0
  197.7811  186.3939  155.5859 C   0  0  0  0  0  0  0  0  0  0  0  0
  197.5589  185.2361  156.3516 C   0  0  0  0  0  0  0  0  0  0  0  0
  195.5591  183.5390  158.4273 C   0  0  0  0  0  0  0  0  0  0  0  0
  195.6637  182.0608  157.9973 C   0  0  0  0  0  0  0  0  0  0  0  0
  194.3548  181.4417  157.7767 N   0  0  0  0  0  0  0  0  0  0  0  0
  199.8226  182.9503  157.8974 C   0  0  0  0  0  0  0  0  0  0  0  0
  199.1935  181.9521  157.1071 N   0  0  0  0  0  0  0  0  0  0  0  0
  199.7184  180.7735  156.5402 C   0  0  0  0  0  0  0  0  0  0  0  0
  201.0480  180.3255  156.7645 C   0  0  0  0  0  0  0  0  0  0  0  0
  201.5424  179.1910  156.0998 C   0  0  0  0  0  0  0  0  0  0  0  0
  200.7021  178.4272  155.2655 C   0  0  0  0  0  0  0  0  0  0  0  0
  199.3571  178.8207  155.0848 C   0  0  0  0  0  0  0  0  0  0  0  0
  198.8756  179.9849  155.7189 C   0  0  0  0  0  0  0  0  0  0  0  0
  201.2418  177.1760  154.6002 C   0  0  0  0  0  0  0  0  0  0  0  0
  200.9846  175.9534  155.4081 N   0  0  0  0  0  0  0  0  0  0  0  0
  201.6440  175.9592  156.7376 C   0  0  0  0  0  0  0  0  0  0  0  0
  201.3024  174.7207  154.6512 C   0  0  0  0  0  0  0  0  0  0  0  0
  201.2156  183.2651  157.7660 C   0  0  0  0  0  0  0  0  0  0  0  0
  201.6456  184.2006  158.6659 C   0  0  0  0  0  0  0  0  0  0  0  0
  194.5531  180.4687  157.5309 H   0  0  0  0  0  0  0  0  0  0  0  0
  193.9119  181.9244  156.9942 H   0  0  0  0  0  0  0  0  0  0  0  0
  196.4497  186.7208  159.2409 H   0  0  0  0  0  0  0  0  0  0  0  0
  196.8148  188.7576  157.8610 H   0  0  0  0  0  0  0  0  0  0  0  0
  197.6717  188.5465  155.5370 H   0  0  0  0  0  0  0  0  0  0  0  0
  198.1110  186.3118  154.5654 H   0  0  0  0  0  0  0  0  0  0  0  0
  197.7582  184.2596  155.9257 H   0  0  0  0  0  0  0  0  0  0  0  0
  195.0901  183.6184  159.4122 H   0  0  0  0  0  0  0  0  0  0  0  0
  194.9001  184.0837  157.7480 H   0  0  0  0  0  0  0  0  0  0  0  0
  196.2220  181.9814  157.0669 H   0  0  0  0  0  0  0  0  0  0  0  0
  196.1889  181.4683  158.7411 H   0  0  0  0  0  0  0  0  0  0  0  0
  198.1876  181.9791  157.0960 H   0  0  0  0  0  0  0  0  0  0  0  0
  201.7180  180.8331  157.4437 H   0  0  0  0  0  0  0  0  0  0  0  0
  202.5721  178.9005  156.2416 H   0  0  0  0  0  0  0  0  0  0  0  0
  198.6863  178.2317  154.4634 H   0  0  0  0  0  0  0  0  0  0  0  0
  197.8438  180.2644  155.5692 H   0  0  0  0  0  0  0  0  0  0  0  0
  200.7697  177.0760  153.6164 H   0  0  0  0  0  0  0  0  0  0  0  0
  202.3158  177.2853  154.4220 H   0  0  0  0  0  0  0  0  0  0  0  0
  202.7269  176.0309  156.6315 H   0  0  0  0  0  0  0  0  0  0  0  0
  201.4213  175.0447  157.2872 H   0  0  0  0  0  0  0  0  0  0  0  0
  201.3000  176.7883  157.3570 H   0  0  0  0  0  0  0  0  0  0  0  0
  202.3670  174.6736  154.4174 H   0  0  0  0  0  0  0  0  0  0  0  0
  200.7475  174.6887  153.7133 H   0  0  0  0  0  0  0  0  0  0  0  0
  201.0394  173.8327  155.2256 H   0  0  0  0  0  0  0  0  0  0  0  0
  201.8567  182.7838  157.0372 H   0  0  0  0  0  0  0  0  0  0  0  0
  202.6460  184.5886  158.7898 H   0  0  0  0  0  0  0  0  0  0  0  0
  193.7773  181.4678  158.5982 H   0  0  0  0  0  0  0  0  0  0  0  0
  199.9895  175.9454  155.5883 H   0  0  0  0  0  0  0  0  0  0  0  0
  1  2  1  0
  1 28  1  0
  2  3  1  0
  2 15  2  0
  3  4  2  0
  3  5  1  0
  5  6  1  0
  5 12  1  0
  6  7  2  0
  6 11  1  0
  7  8  1  0
  7 31  1  0
  8  9  2  0
  8 32  1  0
  9 10  1  0
  9 33  1  0
 10 11  2  0
 10 34  1  0
 11 35  1  0
 12 13  1  0
 12 36  1  0
 12 37  1  0
 13 14  1  0
 13 38  1  0
 13 39  1  0
 14 29  1  0
 14 30  1  0
 14 55  1  0
 15 16  1  0
 15 27  1  0
 16 17  1  0
 16 40  1  0
 17 18  1  0
 17 22  2  0
 18 19  2  0
 18 41  1  0
 19 20  1  0
 19 42  1  0
 20 21  2  0
 20 23  1  0
 21 22  1  0
 21 43  1  0
 22 44  1  0
 23 24  1  0
 23 45  1  0
 23 46  1  0
 24 25  1  0
 24 26  1  0
 24 56  1  0
 25 47  1  0
 25 48  1  0
 25 49  1  0
 26 50  1  0
 26 51  1  0
 26 52  1  0
 27 28  2  0
 27 53  1  0
 28 54  1  0
M  CHG  2  14   1  24   1
M  END
>  <s_epik_cmdline>  (41) 
J2VwaWtfcHl0aG9uJywgJy1waCcsICc3LjAwMDAwMCcsICctcGh0JywgJzIuMDAwMDAwJywgJy1tcycsICcxNicsICctdG4nLCAnOCcsICctbWEnLCAnMjAwJywgJy1pbWFlJywgJzxpbmZpbGUubWFlPicsICctb21hZScsICc8b3V0ZmlsZS5tYWU+Jw==

>  <s_epik_input>  (41) 
W2NIXTFbY0hdW2NIXVtjSF1bY0hdYzFOKFtDSDJdW0NIMl1bTkgyXSlDKD1PKWMyc1tjSF1bY0hdYzJbTkhdYzNbY0hdW2NIXWMoW2NIXVtjSF0zKVtDSDJdTihbQ0gzXSlbQ0gzXQ==

>  <s_i_glide_gridfile>  (41) 
ATP-Grid

>  <s_lp_Force_Field>  (41) 
OPLS_2005

>  <s_lp_Variant>  (41) 
rxn514b____EMOL530647____EMOL1836585____EMOL2732950-1

>  <s_lp_label>  (41) 
2830_sdstereoexpander_1_neutralizer_1_epik_1_stereoizer_1

>  <s_m_source_file>  (41) 
ATP-VSW-LIGPREP-002-in.maegz

>  <s_sd_BIOSOLVEIT.INFINISEE\_QUERY\_NAME>  (41) 
Ref-Lig

>  <s_sd_BIOSOLVEIT.INFINISEE\_QUERY\_SMILES>  (41) 
S(c1nc2c(cc1C[NH2+]Cc3ccc(cc3)C[NH+](C)C)cccc2)Cc4ccccc4

>  <s_sd_BIOSOLVEIT.INFINISEE\_REACTION\_NAME>  (41) 
rxn514b

>  <s_sd_BIOSOLVEIT.INFINISEE\_REAGENT1\_NAME>  (41) 
EMOL530647

>  <s_sd_BIOSOLVEIT.INFINISEE\_REAGENT1\_SMILES>  (41) 
N(c1ccccc1)CCN

>  <s_sd_BIOSOLVEIT.INFINISEE\_REAGENT2\_NAME>  (41) 
EMOL1836585

>  <s_sd_BIOSOLVEIT.INFINISEE\_REAGENT2\_SMILES>  (41) 
S1C(C(=O)O)=C(NC(=O)OC(C)(C)C)C=C1

>  <s_sd_BIOSOLVEIT.INFINISEE\_REAGENT3\_NAME>  (41) 
EMOL2732950

>  <s_sd_BIOSOLVEIT.INFINISEE\_REAGENT3\_SMILES>  (41) 
Brc1ccc(cc1)CN(C)C

>  <s_sd_BIOSOLVEIT.INFINISEE\_SPACE>  (41) 
eXplore_7tr_2022-12

>  <s_vsw_compound_code>  (41) 
90530

>  <s_vsw_variant>  (41) 
90530-1

>  <r_epik_Charging_Adjusted_Penalty>  (41) 
0.090167710907995594

>  <r_epik_Ionization_Penalty>  (41) 
0.045100000000000001

>  <r_epik_Ionization_Penalty_Charging>  (41) 
0.045100000000000001

>  <r_epik_Ionization_Penalty_Neutral>  (41) 
0

>  <r_epik_State_Penalty>  (41) 
0.045100000000000001

>  <r_i_docking_score>  (41) 
-6.0971944712516803

>  <r_i_glide_ecoul>  (41) 
-15.931653976440399

>  <r_i_glide_eff_state_penalty>  (41) 
0.045100000000000001

>  <r_i_glide_einternal>  (41) 
11.091632843017599

>  <r_i_glide_emodel>  (41) 
-64.063825376842502

>  <r_i_glide_energy>  (41) 
-42.327192306518597

>  <r_i_glide_erotb>  (41) 
0.60967920390884101

>  <r_i_glide_esite>  (41) 
-0.11069832461947

>  <r_i_glide_evdw>  (41) 
-26.3955383300781

>  <r_i_glide_gscore>  (41) 
-6.14229447125168

>  <r_i_glide_hbond>  (41) 
-0.38116191938899102

>  <r_i_glide_ligand_efficiency>  (41) 
-0.21775694540184601

>  <r_i_glide_ligand_efficiency_ln>  (41) 
-1.4074115053735301

>  <r_i_glide_ligand_efficiency_sa>  (41) 
-0.66123833822211497

>  <r_i_glide_lipo>  (41) 
-1.09726783517701

>  <r_i_glide_metal>  (41) 
-0

>  <r_i_glide_rewards>  (41) 
-1.4533205830050799

>  <r_lp_Energy>  (41) 
51.680922000000002

>  <r_lp_tautomer_probability>  (41) 
0.99999274205267796

>  <r_qp_ACxDN^.5/SA>  (41) 
0.0110426

>  <r_qp_CIQPlogS>  (41) 
-3.895

>  <r_qp_EA(eV)>  (41) 
0.67000000000000004

>  <r_qp_FISA>  (41) 
83.799999999999997

>  <r_qp_FOSA>  (41) 
262.02199999999999

>  <r_qp_IP(eV)>  (41) 
8.1099999999999994

>  <r_qp_Jm>  (41) 
0.0015483788366105001

>  <r_qp_PISA>  (41) 
325.25299999999999

>  <r_qp_PSA>  (41) 
67.512

>  <r_qp_PercentHumanOralAbsorption>  (41) 
84.584999999999994

>  <r_qp_QPPCaco>  (41) 
98.861999999999995

>  <r_qp_QPPMDCK>  (41) 
75.558999999999997

>  <r_qp_QPlogBB>  (41) 
0.049000000000000002

>  <r_qp_QPlogHERG>  (41) 
-7.6040000000000001

>  <r_qp_QPlogKhsa>  (41) 
0.59599999999999997

>  <r_qp_QPlogKp>  (41) 
-5.1790000000000003

>  <r_qp_QPlogPC16>  (41) 
13.721

>  <r_qp_QPlogPo/w>  (41) 
3.746

>  <r_qp_QPlogPoct>  (41) 
20.007999999999999

>  <r_qp_QPlogPw>  (41) 
10.57

>  <r_qp_QPlogS>  (41) 
-3.2269999999999999

>  <r_qp_QPpolrz>  (41) 
42.487000000000002

>  <r_qp_SASA>  (41) 
704.37699999999995

>  <r_qp_SAamideO>  (41) 
0

>  <r_qp_SAfluorine>  (41) 
0

>  <r_qp_WPSA>  (41) 
33.302999999999997

>  <r_qp_accptHB>  (41) 
5.5

>  <r_qp_dip^2/V>  (41) 
0.0138964

>  <r_qp_dipole>  (41) 
4.2210000000000001

>  <r_qp_donorHB>  (41) 
2

>  <r_qp_glob>  (41) 
0.81033900000000003

>  <r_qp_mol_MW>  (41) 
394.53399999999999

>  <r_qp_volume>  (41) 
1282.2139999999999

>  <r_sd_BIOSOLVEIT.INFINISEE\_FTREES\_SIMILARITY>  (41) 
0.90600000000000003

>  <r_sd_BIOSOLVEIT.LOGP>  (41) 
2.0249000000000001

>  <r_sd_BIOSOLVEIT.MOLECULAR\_WEIGHT>  (41) 
396.55500000000001

>  <r_sd_BIOSOLVEIT.TPSA>  (41) 
64.420000000000002

>  <i_epik_Tot_Q>  (41) 
2

>  <i_epik_Tot_abs_Q>  (41) 
2

>  <i_f3d_flags>  (41) 
0

>  <i_i_glide_confnum>  (41) 
1

>  <i_i_glide_lignum>  (41) 
1386

>  <i_i_glide_posenum>  (41) 
17

>  <i_i_glide_rotatable_bonds>  (41) 
9

>  <i_lp_mmshare_version>  (41) 
65135

>  <i_m_ct_format>  (41) 
2

>  <i_m_source_file_index>  (41) 
2830

>  <i_qp_#NandO>  (41) 
5

>  <i_qp_#acid>  (41) 
0

>  <i_qp_#amide>  (41) 
0

>  <i_qp_#amidine>  (41) 
0

>  <i_qp_#amine>  (41) 
2

>  <i_qp_#in34>  (41) 
0

>  <i_qp_#in56>  (41) 
17

>  <i_qp_#metab>  (41) 
7

>  <i_qp_#nonHatm>  (41) 
28

>  <i_qp_#noncon>  (41) 
0

>  <i_qp_#ringatoms>  (41) 
17

>  <i_qp_#rotor>  (41) 
9

>  <i_qp_#rtvFG>  (41) 
0

>  <i_qp_#stars>  (41) 
0

>  <i_qp_CNS>  (41) 
1

>  <i_qp_HumanOralAbsorption>  (41) 
2

>  <i_qp_RuleOfFive>  (41) 
0

>  <i_qp_RuleOfThree>  (41) 
1

>  <i_sd_BIOSOLVEIT.INFINISEE\_RESULT\_RANK>  (41) 
66454

>  <i_sd_version>  (41) 
0

>  <b_lp_Chiralities_Consistent>  (41) 
1

>  <b_sd_chiral_flag>  (41) 
0

>  <canonical_id>  (41) 
ATP-HTVS-D65E1879A1C4

>  <compound_code>  (41) 
90530

>  <title>  (41) 
rxn514b____EMOL530647____EMOL1836585____EMOL2732950

>  <variant>  (41) 
90530-1

>  <source_file>  (41) 
运行/运行/ATP-VSW/ATP-VSW-DOCK_HTVS_1-002_lib.maegz

>  <canonical_smiles>  (41) 
C[NH+](C)Cc1ccc(Nc2ccsc2C(=O)N(CC[NH3+])c2ccccc2)cc1

>  <scaffold>  (41) 
O=C(Nc1ccccc1)c1sccc1Nc1ccccc1

>  <molecular_formula>  (41) 
C22H28N4OS+2

>  <acquisition_id_v2>  (41) 
ATP-ACQ2-0041

>  <selection_arm_v2>  (41) 
local_structure_bridge

>  <priority_v2>  (41) 
P1

$$$$
ATP-ACQ2-0042
     RDKit          3D

 64 67  0  0  0  0  0  0  0  0999 V2000
  195.9536  183.6599  151.7276 O   0  0  0  0  0  0  0  0  0  0  0  0
  196.7083  182.5407  151.6068 C   0  0  0  0  0  0  0  0  0  0  0  0
  197.1586  181.8340  152.7371 C   0  0  0  0  0  0  0  0  0  0  0  0
  196.8059  182.2270  154.0304 N   0  0  0  0  0  0  0  0  0  0  0  0
  197.5959  182.4285  155.1333 C   0  0  0  0  0  0  0  0  0  0  0  0
  198.8834  182.7408  155.0284 N   0  0  0  0  0  0  0  0  0  0  0  0
  199.6272  182.9111  156.1368 C   0  0  0  0  0  0  0  0  0  0  0  0
  200.9901  183.2439  155.9682 N   0  0  0  0  0  0  0  0  0  0  0  0
  201.7795  183.8395  157.0467 C   0  0  0  0  0  0  0  0  0  0  0  0
  202.1581  182.9043  158.1886 C   0  0  0  0  0  0  0  0  0  0  0  0
  202.9494  181.7620  157.9391 C   0  0  0  0  0  0  0  0  0  0  0  0
  203.2543  180.8736  158.9866 C   0  0  0  0  0  0  0  0  0  0  0  0
  202.7676  181.1195  160.2848 C   0  0  0  0  0  0  0  0  0  0  0  0
  201.9803  182.2579  160.5398 C   0  0  0  0  0  0  0  0  0  0  0  0
  201.7045  183.1668  159.4992 C   0  0  0  0  0  0  0  0  0  0  0  0
  201.5706  183.1646  154.6256 C   0  0  0  0  0  0  0  0  0  0  0  0
  199.0205  182.7646  157.3991 C   0  0  0  0  0  0  0  0  0  0  0  0
  197.6765  182.4037  157.4491 C   0  0  0  0  0  0  0  0  0  0  0  0
  196.9969  182.2449  156.3070 N   0  0  0  0  0  0  0  0  0  0  0  0
  197.0050  182.2447  158.6751 N   0  0  0  0  0  0  0  0  0  0  0  0
  195.5559  182.1066  158.7062 C   0  0  0  0  0  0  0  0  0  0  0  0
  194.8345  183.3464  158.1515 C   0  0  1  0  0  0  0  0  0  0  0  0
  193.4321  183.1246  158.1448 O   0  0  0  0  0  0  0  0  0  0  0  0
  195.2685  184.6262  158.8462 C   0  0  0  0  0  0  0  0  0  0  0  0
  194.6286  185.0034  160.0361 C   0  0  0  0  0  0  0  0  0  0  0  0
  195.0240  186.1710  160.7043 C   0  0  0  0  0  0  0  0  0  0  0  0
  196.0740  186.9577  160.1891 C   0  0  0  0  0  0  0  0  0  0  0  0
  196.7225  186.5758  158.9992 C   0  0  0  0  0  0  0  0  0  0  0  0
  196.3218  185.4112  158.3252 C   0  0  0  0  0  0  0  0  0  0  0  0
  196.4964  188.2203  160.9060 C   0  0  0  0  0  0  0  0  0  0  0  0
  197.9411  180.6713  152.5812 C   0  0  0  0  0  0  0  0  0  0  0  0
  198.2853  180.2170  151.2924 C   0  0  0  0  0  0  0  0  0  0  0  0
  197.8417  180.9234  150.1571 C   0  0  0  0  0  0  0  0  0  0  0  0
  197.0658  182.0909  150.3195 C   0  0  0  0  0  0  0  0  0  0  0  0
  195.4077  183.6907  152.5191 H   0  0  0  0  0  0  0  0  0  0  0  0
  195.8118  182.2634  154.2054 H   0  0  0  0  0  0  0  0  0  0  0  0
  202.7113  184.2470  156.6407 H   0  0  0  0  0  0  0  0  0  0  0  0
  201.2364  184.7032  157.4412 H   0  0  0  0  0  0  0  0  0  0  0  0
  203.3181  181.5658  156.9427 H   0  0  0  0  0  0  0  0  0  0  0  0
  203.8529  179.9981  158.7935 H   0  0  0  0  0  0  0  0  0  0  0  0
  202.9776  180.4236  161.0820 H   0  0  0  0  0  0  0  0  0  0  0  0
  201.5860  182.4407  161.5327 H   0  0  0  0  0  0  0  0  0  0  0  0
  201.0787  184.0229  159.7002 H   0  0  0  0  0  0  0  0  0  0  0  0
  201.4202  182.1699  154.1960 H   0  0  0  0  0  0  0  0  0  0  0  0
  202.6512  183.3563  154.6326 H   0  0  0  0  0  0  0  0  0  0  0  0
  201.1069  183.8971  153.9566 H   0  0  0  0  0  0  0  0  0  0  0  0
  199.5664  182.8731  158.3149 H   0  0  0  0  0  0  0  0  0  0  0  0
  197.4713  182.4063  159.5619 H   0  0  0  0  0  0  0  0  0  0  0  0
  195.2512  181.2094  158.1614 H   0  0  0  0  0  0  0  0  0  0  0  0
  195.2378  181.9577  159.7389 H   0  0  0  0  0  0  0  0  0  0  0  0
  195.0862  183.4464  157.1093 H   0  0  0  0  0  0  0  0  0  0  0  0
  193.2071  183.0241  157.2103 H   0  0  0  0  0  0  0  0  0  0  0  0
  193.8210  184.4004  160.4179 H   0  0  0  0  0  0  0  0  0  0  0  0
  194.5135  186.4557  161.6100 H   0  0  0  0  0  0  0  0  0  0  0  0
  197.5246  187.1792  158.6015 H   0  0  0  0  0  0  0  0  0  0  0  0
  196.8219  185.1312  157.4098 H   0  0  0  0  0  0  0  0  0  0  0  0
  197.5816  188.3142  160.9177 H   0  0  0  0  0  0  0  0  0  0  0  0
  196.1497  188.2055  161.9370 H   0  0  0  0  0  0  0  0  0  0  0  0
  196.0694  189.0948  160.4172 H   0  0  0  0  0  0  0  0  0  0  0  0
  198.2873  180.1183  153.4474 H   0  0  0  0  0  0  0  0  0  0  0  0
  198.8838  179.3248  151.1738 H   0  0  0  0  0  0  0  0  0  0  0  0
  198.0978  180.5782  149.1688 H   0  0  0  0  0  0  0  0  0  0  0  0
  196.7295  182.6330  149.4460 H   0  0  0  0  0  0  0  0  0  0  0  0
  196.0268  181.9939  156.3480 H   0  0  0  0  0  0  0  0  0  0  0  0
  1  2  1  0
  1 35  1  0
  2  3  1  0
  2 34  2  0
  3  4  1  0
  3 31  2  0
  4  5  1  0
  4 36  1  0
  5  6  1  0
  5 19  2  0
  6  7  2  0
  7  8  1  0
  7 17  1  0
  8  9  1  0
  8 16  1  0
  9 10  1  0
  9 37  1  0
  9 38  1  0
 10 11  2  0
 10 15  1  0
 11 12  1  0
 11 39  1  0
 12 13  2  0
 12 40  1  0
 13 14  1  0
 13 41  1  0
 14 15  2  0
 14 42  1  0
 15 43  1  0
 16 44  1  0
 16 45  1  0
 16 46  1  0
 17 18  2  0
 17 47  1  0
 18 19  1  0
 18 20  1  0
 19 64  1  0
 20 21  1  0
 20 48  1  0
 21 22  1  0
 21 49  1  0
 21 50  1  0
 22 23  1  0
 22 24  1  0
 22 51  1  6
 23 52  1  0
 24 25  1  0
 24 29  2  0
 25 26  2  0
 25 53  1  0
 26 27  1  0
 26 54  1  0
 27 28  2  0
 27 30  1  0
 28 29  1  0
 28 55  1  0
 29 56  1  0
 30 57  1  0
 30 58  1  0
 30 59  1  0
 31 32  1  0
 31 60  1  0
 32 33  2  0
 32 61  1  0
 33 34  1  0
 33 62  1  0
 34 63  1  0
M  CHG  1  19   1
M  END
>  <s_epik_cmdline>  (42) 
J2VwaWtfcHl0aG9uJywgJy1waCcsICc3LjAwMDAwMCcsICctcGh0JywgJzIuMDAwMDAwJywgJy1tcycsICcxNicsICctdG4nLCAnOCcsICctbWEnLCAnMjAwJywgJy1pbWFlJywgJzxpbmZpbGUubWFlPicsICctb21hZScsICc8b3V0ZmlsZS5tYWU+Jw==

>  <s_epik_input>  (42) 
W2NIXTFbY0hdW2NIXVtjSF1bY0hdYzFbQ0gyXU4oW0NIM10pYyhuYzJbTkhdYyhjM1tPSF0pW2NIXVtjSF1bY0hdW2NIXTMpW2NIXWMobjIpW05IXVtDSDJdW0NAQEhdKFtPSF0pYzRbY0hdW2NIXWMoW0NIM10pW2NIXVtjSF00

>  <s_i_glide_gridfile>  (42) 
ATP-Grid

>  <s_lp_Force_Field>  (42) 
OPLS_2005

>  <s_lp_Variant>  (42) 
YAS_R028____OTV2128104____OTV998841____OTV1268163____OTV1055862-2

>  <s_lp_label>  (42) 
49_sdstereoexpander_2_neutralizer_1_epik_1_stereoizer_1

>  <s_m_source_file>  (42) 
ATP-VSW-LIGPREP-002-in.maegz

>  <s_sd_BIOSOLVEIT.INFINISEE\_QUERY\_NAME>  (42) 
Ref-Lig

>  <s_sd_BIOSOLVEIT.INFINISEE\_QUERY\_SMILES>  (42) 
S(c1nc2c(cc1C[NH2+]Cc3ccc(cc3)C[NH+](C)C)cccc2)Cc4ccccc4

>  <s_sd_BIOSOLVEIT.INFINISEE\_REACTION\_NAME>  (42) 
YAS_R028

>  <s_sd_BIOSOLVEIT.INFINISEE\_REAGENT1\_NAME>  (42) 
OTV2128104

>  <s_sd_BIOSOLVEIT.INFINISEE\_REAGENT1\_SMILES>  (42) 
Clc1nc(Cl)cc(Cl)n1

>  <s_sd_BIOSOLVEIT.INFINISEE\_REAGENT2\_NAME>  (42) 
OTV998841

>  <s_sd_BIOSOLVEIT.INFINISEE\_REAGENT2\_SMILES>  (42) 
Oc1c(N)cccc1

>  <s_sd_BIOSOLVEIT.INFINISEE\_REAGENT3\_NAME>  (42) 
OTV1268163

>  <s_sd_BIOSOLVEIT.INFINISEE\_REAGENT3\_SMILES>  (42) 
N(Cc1ccccc1)C

>  <s_sd_BIOSOLVEIT.INFINISEE\_REAGENT4\_NAME>  (42) 
OTV1055862

>  <s_sd_BIOSOLVEIT.INFINISEE\_REAGENT4\_SMILES>  (42) 
OC(c1ccc(cc1)C)CN

>  <s_sd_BIOSOLVEIT.INFINISEE\_SPACE>  (42) 
CHEMriya_12bn_2022-01

>  <s_vsw_compound_code>  (42) 
1538

>  <s_vsw_variant>  (42) 
1538-2

>  <r_epik_Charging_Adjusted_Penalty>  (42) 
0.26371092217032099

>  <r_epik_Ionization_Penalty>  (42) 
0.0094000000000000004

>  <r_epik_Ionization_Penalty_Charging>  (42) 
0.0092999999999999992

>  <r_epik_Ionization_Penalty_Neutral>  (42) 
0.0001

>  <r_epik_State_Penalty>  (42) 
0.25440000000000002

>  <r_i_docking_score>  (42) 
-4.57250055963347

>  <r_i_glide_ecoul>  (42) 
-9.9967584609985405

>  <r_i_glide_eff_state_penalty>  (42) 
0.25440000000000002

>  <r_i_glide_einternal>  (42) 
8.2715120315551793

>  <r_i_glide_emodel>  (42) 
-55.409502205604902

>  <r_i_glide_energy>  (42) 
-39.358250617981

>  <r_i_glide_erotb>  (42) 
0.86776031109485896

>  <r_i_glide_esite>  (42) 
-0.170462390865426

>  <r_i_glide_evdw>  (42) 
-29.361492156982401

>  <r_i_glide_gscore>  (42) 
-4.8269005596334704

>  <r_i_glide_hbond>  (42) 
-0.32324173596226102

>  <r_i_glide_ligand_efficiency>  (42) 
-0.134485310577455

>  <r_i_glide_ligand_efficiency_ln>  (42) 
-1.0101936279194701

>  <r_i_glide_ligand_efficiency_sa>  (42) 
-0.43568019873306901

>  <r_i_glide_lipo>  (42) 
-1.9371824578108301

>  <r_i_glide_metal>  (42) 
-0

>  <r_i_glide_rewards>  (42) 
-0.29618590909090797

>  <r_lp_Energy>  (42) 
16.82667

>  <r_lp_tautomer_probability>  (42) 
0.42498940569696197

>  <r_qp_ACxDN^.5/SA>  (42) 
0.0150651

>  <r_qp_CIQPlogS>  (42) 
-7.2430000000000003

>  <r_qp_EA(eV)>  (42) 
0.105

>  <r_qp_FISA>  (42) 
135.91999999999999

>  <r_qp_FOSA>  (42) 
221.90600000000001

>  <r_qp_IP(eV)>  (42) 
8.0649999999999995

>  <r_qp_Jm>  (42) 
0.0107908569543342

>  <r_qp_PISA>  (42) 
432.07799999999997

>  <r_qp_PSA>  (42) 
85.953999999999994

>  <r_qp_PercentHumanOralAbsorption>  (42) 
100

>  <r_qp_QPPCaco>  (42) 
509.29500000000002

>  <r_qp_QPPMDCK>  (42) 
238.572

>  <r_qp_QPlogBB>  (42) 
-1.5580000000000001

>  <r_qp_QPlogHERG>  (42) 
-7.0190000000000001

>  <r_qp_QPlogKhsa>  (42) 
0.71399999999999997

>  <r_qp_QPlogKp>  (42) 
-1.446

>  <r_qp_QPlogPC16>  (42) 
16.789999999999999

>  <r_qp_QPlogPo/w>  (42) 
4.9610000000000003

>  <r_qp_QPlogPoct>  (42) 
25.861999999999998

>  <r_qp_QPlogPw>  (42) 
14.776

>  <r_qp_QPlogS>  (42) 
-6.1790000000000003

>  <r_qp_QPpolrz>  (42) 
49.369

>  <r_qp_SASA>  (42) 
789.904

>  <r_qp_SAamideO>  (42) 
0

>  <r_qp_SAfluorine>  (42) 
0

>  <r_qp_WPSA>  (42) 
0

>  <r_qp_accptHB>  (42) 
5.9500000000000002

>  <r_qp_dip^2/V>  (42) 
0.023577000000000001

>  <r_qp_dipole>  (42) 
5.8689999999999998

>  <r_qp_donorHB>  (42) 
4

>  <r_qp_glob>  (42) 
0.78821770000000002

>  <r_qp_mol_MW>  (42) 
455.55799999999999

>  <r_qp_volume>  (42) 
1460.7750000000001

>  <r_sd_BIOSOLVEIT.INFINISEE\_FTREES\_SIMILARITY>  (42) 
0.91800000000000004

>  <r_sd_BIOSOLVEIT.LOGP>  (42) 
5.0161199999999999

>  <r_sd_BIOSOLVEIT.MOLECULAR\_WEIGHT>  (42) 
455.55900000000003

>  <r_sd_BIOSOLVEIT.TPSA>  (42) 
93.540000000000006

>  <i_epik_Tot_Q>  (42) 
1

>  <i_epik_Tot_abs_Q>  (42) 
1

>  <i_f3d_flags>  (42) 
0

>  <i_i_glide_confnum>  (42) 
8

>  <i_i_glide_lignum>  (42) 
80

>  <i_i_glide_posenum>  (42) 
13

>  <i_i_glide_rotatable_bonds>  (42) 
11

>  <i_lp_mmshare_version>  (42) 
65135

>  <i_m_ct_format>  (42) 
2

>  <i_m_source_file_index>  (42) 
49

>  <i_qp_#NandO>  (42) 
7

>  <i_qp_#acid>  (42) 
0

>  <i_qp_#amide>  (42) 
0

>  <i_qp_#amidine>  (42) 
0

>  <i_qp_#amine>  (42) 
0

>  <i_qp_#in34>  (42) 
0

>  <i_qp_#in56>  (42) 
24

>  <i_qp_#metab>  (42) 
5

>  <i_qp_#nonHatm>  (42) 
34

>  <i_qp_#noncon>  (42) 
0

>  <i_qp_#ringatoms>  (42) 
24

>  <i_qp_#rotor>  (42) 
11

>  <i_qp_#rtvFG>  (42) 
0

>  <i_qp_#stars>  (42) 
0

>  <i_qp_CNS>  (42) 
-2

>  <i_qp_HumanOralAbsorption>  (42) 
3

>  <i_qp_RuleOfFive>  (42) 
0

>  <i_qp_RuleOfThree>  (42) 
1

>  <i_sd_BIOSOLVEIT.INFINISEE\_RESULT\_RANK>  (42) 
20946

>  <i_sd_version>  (42) 
0

>  <b_lp_Chiralities_Consistent>  (42) 
1

>  <b_sd_chiral_flag>  (42) 
0

>  <canonical_id>  (42) 
ATP-HTVS-1AEE198E3D8C

>  <compound_code>  (42) 
1538

>  <title>  (42) 
YAS_R028____OTV2128104____OTV998841____OTV1268163____OTV1055862

>  <variant>  (42) 
1538-2

>  <source_file>  (42) 
运行/运行/ATP-VSW/ATP-VSW-DOCK_HTVS_1-002_lib.maegz

>  <canonical_smiles>  (42) 
Cc1ccc([C@H](O)CNc2cc(N(C)Cc3ccccc3)nc(Nc3ccccc3O)[nH+]2)cc1

>  <scaffold>  (42) 
c1ccc(CCNc2cc(NCc3ccccc3)nc(Nc3ccccc3)[nH+]2)cc1

>  <molecular_formula>  (42) 
C27H30N5O2+

>  <acquisition_id_v2>  (42) 
ATP-ACQ2-0042

>  <selection_arm_v2>  (42) 
scaffold_score_exploration

>  <priority_v2>  (42) 
P1

$$$$
ATP-ACQ2-0043
     RDKit          3D

 54 57  0  0  0  0  0  0  0  0999 V2000
  198.3785  178.4651  150.1619 F   0  0  0  0  0  0  0  0  0  0  0  0
  197.8834  179.2457  151.1493 C   0  0  0  0  0  0  0  0  0  0  0  0
  198.4082  179.1398  152.4558 C   0  0  0  0  0  0  0  0  0  0  0  0
  197.9081  179.9371  153.5131 C   0  0  0  0  0  0  0  0  0  0  0  0
  196.8775  180.8535  153.1794 C   0  0  0  0  0  0  0  0  0  0  0  0
  196.5079  181.5597  154.2991 O   0  0  0  0  0  0  0  0  0  0  0  0
  197.2937  181.1120  155.3221 C   0  0  0  0  0  0  0  0  0  0  0  0
  198.1654  180.1217  154.9196 C   0  0  0  0  0  0  0  0  0  0  0  0
  199.1928  179.3762  155.6594 C   0  0  0  0  0  0  0  0  0  0  0  0
  199.3703  177.9915  155.4461 C   0  0  0  0  0  0  0  0  0  0  0  0
  200.3484  177.2668  156.1561 C   0  0  0  0  0  0  0  0  0  0  0  0
  201.1483  177.9227  157.1079 C   0  0  0  0  0  0  0  0  0  0  0  0
  200.9837  179.3027  157.3307 C   0  0  0  0  0  0  0  0  0  0  0  0
  200.0145  180.0267  156.6065 C   0  0  0  0  0  0  0  0  0  0  0  0
  197.0582  181.7561  156.6430 C   0  0  0  0  0  0  0  0  0  0  0  0
  195.6830  181.5349  157.1271 N   0  0  0  0  0  0  0  0  0  0  0  0
  195.5231  181.6709  158.5892 C   0  0  0  0  0  0  0  0  0  0  0  0
  195.6932  183.0894  159.0753 C   0  0  0  0  0  0  0  0  0  0  0  0
  196.9902  183.5895  159.2960 C   0  0  0  0  0  0  0  0  0  0  0  0
  197.1635  184.9036  159.7584 C   0  0  0  0  0  0  0  0  0  0  0  0
  196.0439  185.7419  159.9521 C   0  0  0  0  0  0  0  0  0  0  0  0
  194.7530  185.2160  159.7650 C   0  0  0  0  0  0  0  0  0  0  0  0
  194.5636  183.8972  159.3162 C   0  0  0  0  0  0  0  0  0  0  0  0
  196.2256  187.1864  160.4049 C   0  0  0  0  0  0  0  0  0  0  0  0
  196.8746  188.1348  159.3620 C   0  0  1  0  0  0  0  0  0  0  0  0
  197.1347  189.3685  160.0031 O   0  0  0  0  0  0  0  0  0  0  0  0
  198.1963  187.6630  158.7296 C   0  0  0  0  0  0  0  0  0  0  0  0
  196.3502  180.9885  151.8867 C   0  0  0  0  0  0  0  0  0  0  0  0
  196.8573  180.1698  150.8614 C   0  0  0  0  0  0  0  0  0  0  0  0
  194.9935  182.0757  156.6017 H   0  0  0  0  0  0  0  0  0  0  0  0
  199.2072  178.4381  152.6447 H   0  0  0  0  0  0  0  0  0  0  0  0
  198.7533  177.4589  154.7435 H   0  0  0  0  0  0  0  0  0  0  0  0
  200.4733  176.2093  155.9786 H   0  0  0  0  0  0  0  0  0  0  0  0
  201.9005  177.3770  157.6553 H   0  0  0  0  0  0  0  0  0  0  0  0
  201.5990  179.8078  158.0603 H   0  0  0  0  0  0  0  0  0  0  0  0
  199.9111  181.0857  156.7871 H   0  0  0  0  0  0  0  0  0  0  0  0
  197.7242  181.3134  157.3786 H   0  0  0  0  0  0  0  0  0  0  0  0
  197.2849  182.8229  156.5848 H   0  0  0  0  0  0  0  0  0  0  0  0
  194.5354  181.2961  158.8701 H   0  0  0  0  0  0  0  0  0  0  0  0
  196.2512  181.0363  159.1005 H   0  0  0  0  0  0  0  0  0  0  0  0
  197.8634  182.9774  159.1215 H   0  0  0  0  0  0  0  0  0  0  0  0
  198.1626  185.2434  159.9557 H   0  0  0  0  0  0  0  0  0  0  0  0
  193.8847  185.8261  159.9500 H   0  0  0  0  0  0  0  0  0  0  0  0
  193.5680  183.5057  159.1503 H   0  0  0  0  0  0  0  0  0  0  0  0
  195.2544  187.6040  160.6874 H   0  0  0  0  0  0  0  0  0  0  0  0
  196.7897  187.1600  161.3319 H   0  0  0  0  0  0  0  0  0  0  0  0
  196.1704  188.3098  158.5472 H   0  0  0  0  0  0  0  0  0  0  0  0
  197.7833  189.2420  160.6847 H   0  0  0  0  0  0  0  0  0  0  0  0
  198.0506  186.7745  158.1119 H   0  0  0  0  0  0  0  0  0  0  0  0
  198.9270  187.4211  159.5036 H   0  0  0  0  0  0  0  0  0  0  0  0
  198.6440  188.4223  158.0884 H   0  0  0  0  0  0  0  0  0  0  0  0
  195.5680  181.7093  151.6981 H   0  0  0  0  0  0  0  0  0  0  0  0
  196.4746  180.2524  149.8551 H   0  0  0  0  0  0  0  0  0  0  0  0
  195.5184  180.5319  157.0107 H   0  0  0  0  0  0  0  0  0  0  0  0
  1  2  1  0
  2  3  1  0
  2 29  2  0
  3  4  2  0
  3 31  1  0
  4  5  1  0
  4  8  1  0
  5  6  1  0
  5 28  2  0
  6  7  1  0
  7  8  2  0
  7 15  1  0
  8  9  1  0
  9 10  2  0
  9 14  1  0
 10 11  1  0
 10 32  1  0
 11 12  2  0
 11 33  1  0
 12 13  1  0
 12 34  1  0
 13 14  2  0
 13 35  1  0
 14 36  1  0
 15 16  1  0
 15 37  1  0
 15 38  1  0
 16 17  1  0
 16 30  1  0
 16 54  1  0
 17 18  1  0
 17 39  1  0
 17 40  1  0
 18 19  1  0
 18 23  2  0
 19 20  2  0
 19 41  1  0
 20 21  1  0
 20 42  1  0
 21 22  2  0
 21 24  1  0
 22 23  1  0
 22 43  1  0
 23 44  1  0
 24 25  1  0
 24 45  1  0
 24 46  1  0
 25 26  1  0
 25 27  1  0
 25 47  1  6
 26 48  1  0
 27 49  1  0
 27 50  1  0
 27 51  1  0
 28 29  1  0
 28 52  1  0
 29 53  1  0
M  CHG  1  16   1
M  END
>  <s_epik_cmdline>  (43) 
J2VwaWtfcHl0aG9uJywgJy1waCcsICc3LjAwMDAwMCcsICctcGh0JywgJzIuMDAwMDAwJywgJy1tcycsICcxNicsICctdG4nLCAnOCcsICctbWEnLCAnMjAwJywgJy1pbWFlJywgJzxpbmZpbGUubWFlPicsICctb21hZScsICc8b3V0ZmlsZS5tYWU+Jw==

>  <s_epik_input>  (43) 
W2NIXTFbY0hdW2NIXVtjSF1bY0hdYzEtYzJjKG9jKGMyMylbY0hdW2NIXWMoRilbY0hdMylbQ0gyXVtOSF1bQ0gyXWM0W2NIXVtjSF1jKFtjSF1bY0hdNClbQ0gyXVtDQEBIXShbT0hdKVtDSDNd

>  <s_i_glide_gridfile>  (43) 
ATP-Grid

>  <s_lp_Force_Field>  (43) 
OPLS_2005

>  <s_lp_Variant>  (43) 
m_270004bbb____15722580____21435080-2

>  <s_lp_label>  (43) 
1350_sdstereoexpander_2_neutralizer_1_epik_1_stereoizer_1

>  <s_m_source_file>  (43) 
ATP-VSW-LIGPREP-002-in.maegz

>  <s_sd_BIOSOLVEIT.INFINISEE\_QUERY\_NAME>  (43) 
Ref-Lig

>  <s_sd_BIOSOLVEIT.INFINISEE\_QUERY\_SMILES>  (43) 
S(c1nc2c(cc1C[NH2+]Cc3ccc(cc3)C[NH+](C)C)cccc2)Cc4ccccc4

>  <s_sd_BIOSOLVEIT.INFINISEE\_REACTION\_NAME>  (43) 
m_270004bbb

>  <s_sd_BIOSOLVEIT.INFINISEE\_REAGENT1\_SMILES>  (43) 
[R1*]NCC=1Oc2c(cc(F)cc2)C1c3ccccc3

>  <s_sd_BIOSOLVEIT.INFINISEE\_REAGENT2\_SMILES>  (43) 
[R1*]Cc1ccc(cc1)CC(O)C

>  <s_sd_BIOSOLVEIT.INFINISEE\_SPACE>  (43) 
REALSpace_44bn_2023-08

>  <s_vsw_compound_code>  (43) 
43170

>  <s_vsw_variant>  (43) 
43170-2

>  <r_epik_Charging_Adjusted_Penalty>  (43) 
0.053392174155867098

>  <r_epik_Ionization_Penalty>  (43) 
0.026700000000000002

>  <r_epik_Ionization_Penalty_Charging>  (43) 
0.026700000000000002

>  <r_epik_Ionization_Penalty_Neutral>  (43) 
0

>  <r_epik_State_Penalty>  (43) 
0.026700000000000002

>  <r_i_docking_score>  (43) 
-6.2931884913473199

>  <r_i_glide_ecoul>  (43) 
-12.5337991714478

>  <r_i_glide_eff_state_penalty>  (43) 
0.026700000000000002

>  <r_i_glide_einternal>  (43) 
3.58681321144104

>  <r_i_glide_emodel>  (43) 
-71.711513416561203

>  <r_i_glide_energy>  (43) 
-48.056385993957498

>  <r_i_glide_erotb>  (43) 
0.89549712765026701

>  <r_i_glide_esite>  (43) 
-0.10000000000000001

>  <r_i_glide_evdw>  (43) 
-35.522586822509801

>  <r_i_glide_gscore>  (43) 
-6.3198884913473199

>  <r_i_glide_hbond>  (43) 
-0.36895635862994602

>  <r_i_glide_ligand_efficiency>  (43) 
-0.21700649970163199

>  <r_i_glide_ligand_efficiency_ln>  (43) 
-1.44098058302746

>  <r_i_glide_ligand_efficiency_sa>  (43) 
-0.66671271956817502

>  <r_i_glide_lipo>  (43) 
-2.0263580051683601

>  <r_i_glide_metal>  (43) 
-0

>  <r_i_glide_rewards>  (43) 
-1.06387203835663

>  <r_lp_Energy>  (43) 
10.844706

>  <r_qp_ACxDN^.5/SA>  (43) 
0.0079141999999999997

>  <r_qp_CIQPlogS>  (43) 
-5.7560000000000002

>  <r_qp_EA(eV)>  (43) 
0.64800000000000002

>  <r_qp_FISA>  (43) 
65.073999999999998

>  <r_qp_FOSA>  (43) 
187.249

>  <r_qp_IP(eV)>  (43) 
8.9039999999999999

>  <r_qp_Jm>  (43) 
0.013007297173533499

>  <r_qp_PISA>  (43) 
361.98200000000003

>  <r_qp_PSA>  (43) 
43.585999999999999

>  <r_qp_PercentHumanOralAbsorption>  (43) 
100

>  <r_qp_QPPCaco>  (43) 
596.63

>  <r_qp_QPPMDCK>  (43) 
565.60400000000004

>  <r_qp_QPlogBB>  (43) 
0.035000000000000003

>  <r_qp_QPlogHERG>  (43) 
-6.6319999999999997

>  <r_qp_QPlogKhsa>  (43) 
0.85399999999999998

>  <r_qp_QPlogKp>  (43) 
-2.8340000000000001

>  <r_qp_QPlogPC16>  (43) 
12.734999999999999

>  <r_qp_QPlogPo/w>  (43) 
4.8470000000000004

>  <r_qp_QPlogPoct>  (43) 
18.806999999999999

>  <r_qp_QPlogPw>  (43) 
9.2609999999999992

>  <r_qp_QPlogS>  (43) 
-4.6420000000000003

>  <r_qp_QPpolrz>  (43) 
41.741

>  <r_qp_SASA>  (43) 
661.16800000000001

>  <r_qp_SAamideO>  (43) 
0

>  <r_qp_SAfluorine>  (43) 
46.863999999999997

>  <r_qp_WPSA>  (43) 
46.863999999999997

>  <r_qp_accptHB>  (43) 
3.7000000000000002

>  <r_qp_dip^2/V>  (43) 
0.0025503000000000001

>  <r_qp_dipole>  (43) 
1.766

>  <r_qp_donorHB>  (43) 
2

>  <r_qp_glob>  (43) 
0.83637790000000001

>  <r_qp_mol_MW>  (43) 
389.46800000000002

>  <r_qp_volume>  (43) 
1222.713

>  <r_sd_BIOSOLVEIT.INFINISEE\_FTREES\_SIMILARITY>  (43) 
0.90900000000000003

>  <r_sd_BIOSOLVEIT.LOGP>  (43) 
4.4257999999999997

>  <r_sd_BIOSOLVEIT.MOLECULAR\_WEIGHT>  (43) 
390.476

>  <r_sd_BIOSOLVEIT.TPSA>  (43) 
49.979999999999997

>  <i_epik_Tot_Q>  (43) 
1

>  <i_epik_Tot_abs_Q>  (43) 
1

>  <i_f3d_flags>  (43) 
0

>  <i_i_glide_confnum>  (43) 
8

>  <i_i_glide_lignum>  (43) 
472

>  <i_i_glide_posenum>  (43) 
13

>  <i_i_glide_rotatable_bonds>  (43) 
8

>  <i_lp_mmshare_version>  (43) 
65135

>  <i_m_ct_format>  (43) 
2

>  <i_m_source_file_index>  (43) 
1350

>  <i_qp_#NandO>  (43) 
3

>  <i_qp_#acid>  (43) 
0

>  <i_qp_#amide>  (43) 
0

>  <i_qp_#amidine>  (43) 
0

>  <i_qp_#amine>  (43) 
1

>  <i_qp_#in34>  (43) 
0

>  <i_qp_#in56>  (43) 
21

>  <i_qp_#metab>  (43) 
6

>  <i_qp_#nonHatm>  (43) 
29

>  <i_qp_#noncon>  (43) 
0

>  <i_qp_#ringatoms>  (43) 
21

>  <i_qp_#rotor>  (43) 
7

>  <i_qp_#rtvFG>  (43) 
0

>  <i_qp_#stars>  (43) 
0

>  <i_qp_CNS>  (43) 
1

>  <i_qp_HumanOralAbsorption>  (43) 
3

>  <i_qp_RuleOfFive>  (43) 
0

>  <i_qp_RuleOfThree>  (43) 
0

>  <i_sd_BIOSOLVEIT.INFINISEE\_REAGENT1\_NAME>  (43) 
15722580

>  <i_sd_BIOSOLVEIT.INFINISEE\_REAGENT2\_NAME>  (43) 
21435080

>  <i_sd_BIOSOLVEIT.INFINISEE\_RESULT\_RANK>  (43) 
49582

>  <i_sd_version>  (43) 
0

>  <b_lp_Chiralities_Consistent>  (43) 
1

>  <b_sd_chiral_flag>  (43) 
0

>  <canonical_id>  (43) 
ATP-HTVS-DDBB6FEB6103

>  <compound_code>  (43) 
43170

>  <title>  (43) 
m_270004bbb____15722580____21435080

>  <variant>  (43) 
43170-2

>  <source_file>  (43) 
运行/运行/ATP-VSW/ATP-VSW-DOCK_HTVS_1-002_lib.maegz

>  <canonical_smiles>  (43) 
C[C@H](O)Cc1ccc(C[NH2+]Cc2oc3ccc(F)cc3c2-c2ccccc2)cc1

>  <scaffold>  (43) 
c1ccc(C[NH2+]Cc2oc3ccccc3c2-c2ccccc2)cc1

>  <molecular_formula>  (43) 
C25H25FNO2+

>  <acquisition_id_v2>  (43) 
ATP-ACQ2-0043

>  <selection_arm_v2>  (43) 
exploitation

>  <priority_v2>  (43) 
P1

$$$$
ATP-ACQ2-0044
     RDKit          3D

 52 55  0  0  0  0  0  0  0  0999 V2000
  202.3211  180.9864  155.4908 N   0  0  0  0  0  0  0  0  0  0  0  0
  201.2096  181.3751  154.8227 C   0  0  0  0  0  0  0  0  0  0  0  0
  199.9109  180.8644  155.0616 C   0  0  0  0  0  0  0  0  0  0  0  0
  199.7893  179.8548  156.0587 C   0  0  0  0  0  0  0  0  0  0  0  0
  200.9353  179.4964  156.7975 C   0  0  0  0  0  0  0  0  0  0  0  0
  202.1771  180.0728  156.4742 C   0  0  0  0  0  0  0  0  0  0  0  0
  198.7392  181.3574  154.2997 C   0  0  0  0  0  0  0  0  0  0  0  0
  198.9408  181.8660  153.0887 N   0  0  0  0  0  0  0  0  0  0  0  0
  197.7293  182.2326  152.6112 N   0  0  0  0  0  0  0  0  0  0  0  0
  197.5861  182.8019  151.3183 C   0  0  0  0  0  0  0  0  0  0  0  0
  198.5034  182.4985  150.2856 C   0  0  0  0  0  0  0  0  0  0  0  0
  198.3506  183.0590  149.0019 C   0  0  0  0  0  0  0  0  0  0  0  0
  197.2797  183.9372  148.7409 C   0  0  0  0  0  0  0  0  0  0  0  0
  196.3628  184.2478  149.7619 C   0  0  0  0  0  0  0  0  0  0  0  0
  196.5099  183.6821  151.0434 C   0  0  0  0  0  0  0  0  0  0  0  0
  196.7491  181.9649  153.5380 C   0  0  0  0  0  0  0  0  0  0  0  0
  197.3462  181.4124  154.6412 C   0  0  0  0  0  0  0  0  0  0  0  0
  196.6656  180.9486  155.9184 C   0  0  0  0  0  0  0  0  0  0  0  0
  196.0190  182.0829  156.6188 N   0  0  0  0  0  0  0  0  0  0  0  0
  195.8792  181.8588  158.0738 C   0  0  0  0  0  0  0  0  0  0  0  0
  195.8485  183.1815  158.8053 C   0  0  0  0  0  0  0  0  0  0  0  0
  197.0327  183.9246  159.0619 C   0  0  0  0  0  0  0  0  0  0  0  0
  198.2832  183.4399  158.6327 N   0  0  0  0  0  0  0  0  0  0  0  0
  199.5167  184.1064  159.0257 C   0  0  0  0  0  0  0  0  0  0  0  0
  196.9170  185.1679  159.7328 C   0  0  0  0  0  0  0  0  0  0  0  0
  195.6610  185.6498  160.1428 C   0  0  0  0  0  0  0  0  0  0  0  0
  194.5020  184.9005  159.8832 C   0  0  0  0  0  0  0  0  0  0  0  0
  194.5957  183.6730  159.2111 C   0  0  0  0  0  0  0  0  0  0  0  0
  196.6378  182.8741  156.5127 H   0  0  0  0  0  0  0  0  0  0  0  0
  201.3955  182.1198  154.0516 H   0  0  0  0  0  0  0  0  0  0  0  0
  198.8539  179.3452  156.2653 H   0  0  0  0  0  0  0  0  0  0  0  0
  200.8471  178.7589  157.5863 H   0  0  0  0  0  0  0  0  0  0  0  0
  203.0782  179.7651  156.9953 H   0  0  0  0  0  0  0  0  0  0  0  0
  199.3274  181.8244  150.4770 H   0  0  0  0  0  0  0  0  0  0  0  0
  199.0532  182.8173  148.2177 H   0  0  0  0  0  0  0  0  0  0  0  0
  197.1611  184.3708  147.7596 H   0  0  0  0  0  0  0  0  0  0  0  0
  195.5500  184.9288  149.5510 H   0  0  0  0  0  0  0  0  0  0  0  0
  195.8074  183.9353  151.8242 H   0  0  0  0  0  0  0  0  0  0  0  0
  195.7157  182.2034  153.3360 H   0  0  0  0  0  0  0  0  0  0  0  0
  195.9509  180.1561  155.6953 H   0  0  0  0  0  0  0  0  0  0  0  0
  197.3823  180.5031  156.5952 H   0  0  0  0  0  0  0  0  0  0  0  0
  194.9742  181.2802  158.2538 H   0  0  0  0  0  0  0  0  0  0  0  0
  196.6958  181.2844  158.5225 H   0  0  0  0  0  0  0  0  0  0  0  0
  198.3734  182.4889  158.3045 H   0  0  0  0  0  0  0  0  0  0  0  0
  200.3748  183.5309  158.6791 H   0  0  0  0  0  0  0  0  0  0  0  0
  199.5904  184.1953  160.1100 H   0  0  0  0  0  0  0  0  0  0  0  0
  199.5790  185.1009  158.5834 H   0  0  0  0  0  0  0  0  0  0  0  0
  197.7843  185.7750  159.9464 H   0  0  0  0  0  0  0  0  0  0  0  0
  195.5857  186.5969  160.6554 H   0  0  0  0  0  0  0  0  0  0  0  0
  193.5341  185.2696  160.1853 H   0  0  0  0  0  0  0  0  0  0  0  0
  193.6982  183.1102  158.9957 H   0  0  0  0  0  0  0  0  0  0  0  0
  195.1021  182.3302  156.2094 H   0  0  0  0  0  0  0  0  0  0  0  0
  1  2  1  0
  1  6  2  0
  2  3  2  0
  2 30  1  0
  3  4  1  0
  3  7  1  0
  4  5  2  0
  4 31  1  0
  5  6  1  0
  5 32  1  0
  6 33  1  0
  7  8  2  0
  7 17  1  0
  8  9  1  0
  9 10  1  0
  9 16  1  0
 10 11  2  0
 10 15  1  0
 11 12  1  0
 11 34  1  0
 12 13  2  0
 12 35  1  0
 13 14  1  0
 13 36  1  0
 14 15  2  0
 14 37  1  0
 15 38  1  0
 16 17  2  0
 16 39  1  0
 17 18  1  0
 18 19  1  0
 18 40  1  0
 18 41  1  0
 19 20  1  0
 19 29  1  0
 19 52  1  0
 20 21  1  0
 20 42  1  0
 20 43  1  0
 21 22  1  0
 21 28  2  0
 22 23  1  0
 22 25  2  0
 23 24  1  0
 23 44  1  0
 24 45  1  0
 24 46  1  0
 24 47  1  0
 25 26  1  0
 25 48  1  0
 26 27  2  0
 26 49  1  0
 27 28  1  0
 27 50  1  0
 28 51  1  0
M  CHG  1  19   1
M  END
>  <s_epik_cmdline>  (44) 
J2VwaWtfcHl0aG9uJywgJy1waCcsICc3LjAwMDAwMCcsICctcGh0JywgJzIuMDAwMDAwJywgJy1tcycsICcxNicsICctdG4nLCAnOCcsICctbWEnLCAnMjAwJywgJy1pbWFlJywgJzxpbmZpbGUubWFlPicsICctb21hZScsICc8b3V0ZmlsZS5tYWU+Jw==

>  <s_epik_input>  (44) 
W2NIXTFbY0hdW2NIXW5bY0hdYzEtYzJubigtYzNbY0hdW2NIXVtjSF1bY0hdW2NIXTMpW2NIXWMyW0NIMl1bTkhdW0NIMl1jNGMoW05IXVtDSDNdKVtjSF1bY0hdW2NIXVtjSF00

>  <s_i_glide_gridfile>  (44) 
ATP-Grid

>  <s_lp_Force_Field>  (44) 
OPLS_2005

>  <s_lp_Variant>  (44) 
m_270004bbb____23868216____7547738-1

>  <s_lp_label>  (44) 
802_sdstereoexpander_1_neutralizer_1_epik_1_stereoizer_1

>  <s_m_source_file>  (44) 
ATP-VSW-LIGPREP-003-in.maegz

>  <s_sd_BIOSOLVEIT.INFINISEE\_QUERY\_NAME>  (44) 
Ref-Lig

>  <s_sd_BIOSOLVEIT.INFINISEE\_QUERY\_SMILES>  (44) 
S(c1nc2c(cc1C[NH2+]Cc3ccc(cc3)C[NH+](C)C)cccc2)Cc4ccccc4

>  <s_sd_BIOSOLVEIT.INFINISEE\_REACTION\_NAME>  (44) 
m_270004bbb

>  <s_sd_BIOSOLVEIT.INFINISEE\_REAGENT1\_SMILES>  (44) 
[R1*]NCc1c(NC)cccc1

>  <s_sd_BIOSOLVEIT.INFINISEE\_REAGENT2\_SMILES>  (44) 
[R1*]CC=1C(=NN(c2ccccc2)C1)c3cnccc3

>  <s_sd_BIOSOLVEIT.INFINISEE\_SPACE>  (44) 
REALSpace_44bn_2023-08

>  <s_vsw_compound_code>  (44) 
25635

>  <s_vsw_variant>  (44) 
25635-1

>  <r_epik_Charging_Adjusted_Penalty>  (44) 
0.150878377195796

>  <r_epik_Ionization_Penalty>  (44) 
0.0785

>  <r_epik_Ionization_Penalty_Charging>  (44) 
0.075399999999999995

>  <r_epik_Ionization_Penalty_Neutral>  (44) 
0.0030999999999999999

>  <r_epik_State_Penalty>  (44) 
0.075399999999999995

>  <r_i_docking_score>  (44) 
-5.1415472799939899

>  <r_i_glide_ecoul>  (44) 
-11.6377658843994

>  <r_i_glide_eff_state_penalty>  (44) 
0.075399999999999995

>  <r_i_glide_einternal>  (44) 
3.1165347099304199

>  <r_i_glide_emodel>  (44) 
-62.1502316701078

>  <r_i_glide_energy>  (44) 
-42.674329757690401

>  <r_i_glide_erotb>  (44) 
0.843396935618275

>  <r_i_glide_esite>  (44) 
-0.097758839298384595

>  <r_i_glide_evdw>  (44) 
-31.036563873291001

>  <r_i_glide_gscore>  (44) 
-5.21694727999399

>  <r_i_glide_hbond>  (44) 
-0.20000000000000001

>  <r_i_glide_ligand_efficiency>  (44) 
-0.183626688571214

>  <r_i_glide_ligand_efficiency_ln>  (44) 
-1.18682007461048

>  <r_i_glide_ligand_efficiency_sa>  (44) 
-0.55759877683805104

>  <r_i_glide_lipo>  (44) 
-1.5819342999894199

>  <r_i_glide_metal>  (44) 
-0

>  <r_i_glide_rewards>  (44) 
-0.883157999999999

>  <r_lp_Energy>  (44) 
17.689032999999998

>  <r_lp_tautomer_probability>  (44) 
1

>  <r_qp_ACxDN^.5/SA>  (44) 
0.0099430000000000004

>  <r_qp_CIQPlogS>  (44) 
-4.9880000000000004

>  <r_qp_EA(eV)>  (44) 
0.63500000000000001

>  <r_qp_FISA>  (44) 
52.478999999999999

>  <r_qp_FOSA>  (44) 
145.24700000000001

>  <r_qp_IP(eV)>  (44) 
7.9359999999999999

>  <r_qp_Jm>  (44) 
0.0118598854338853

>  <r_qp_PISA>  (44) 
513.43799999999999

>  <r_qp_PSA>  (44) 
52.610999999999997

>  <r_qp_PercentHumanOralAbsorption>  (44) 
100

>  <r_qp_QPPCaco>  (44) 
785.49000000000001

>  <r_qp_QPPMDCK>  (44) 
421.589

>  <r_qp_QPlogBB>  (44) 
0.108

>  <r_qp_QPlogHERG>  (44) 
-8.016

>  <r_qp_QPlogKhsa>  (44) 
0.80300000000000005

>  <r_qp_QPlogKp>  (44) 
-2.2610000000000001

>  <r_qp_QPlogPC16>  (44) 
14.465999999999999

>  <r_qp_QPlogPo/w>  (44) 
4.6660000000000004

>  <r_qp_QPlogPoct>  (44) 
21.183

>  <r_qp_QPlogPw>  (44) 
12.031000000000001

>  <r_qp_QPlogS>  (44) 
-5.2329999999999997

>  <r_qp_QPpolrz>  (44) 
46.170000000000002

>  <r_qp_SASA>  (44) 
711.16300000000001

>  <r_qp_SAamideO>  (44) 
0

>  <r_qp_SAfluorine>  (44) 
0

>  <r_qp_WPSA>  (44) 
0

>  <r_qp_accptHB>  (44) 
5

>  <r_qp_dip^2/V>  (44) 
0.021754200000000001

>  <r_qp_dipole>  (44) 
5.2460000000000004

>  <r_qp_donorHB>  (44) 
2

>  <r_qp_glob>  (44) 
0.7954717

>  <r_qp_mol_MW>  (44) 
369.46800000000002

>  <r_qp_volume>  (44) 
1265.155

>  <r_sd_BIOSOLVEIT.INFINISEE\_FTREES\_SIMILARITY>  (44) 
0.92300000000000004

>  <r_sd_BIOSOLVEIT.LOGP>  (44) 
3.2395999999999998

>  <r_sd_BIOSOLVEIT.MOLECULAR\_WEIGHT>  (44) 
370.47800000000001

>  <r_sd_BIOSOLVEIT.TPSA>  (44) 
59.350000000000001

>  <i_epik_Tot_Q>  (44) 
1

>  <i_epik_Tot_abs_Q>  (44) 
1

>  <i_f3d_flags>  (44) 
0

>  <i_i_glide_confnum>  (44) 
3

>  <i_i_glide_lignum>  (44) 
327

>  <i_i_glide_posenum>  (44) 
17

>  <i_i_glide_rotatable_bonds>  (44) 
7

>  <i_lp_mmshare_version>  (44) 
65135

>  <i_m_ct_format>  (44) 
2

>  <i_m_source_file_index>  (44) 
802

>  <i_qp_#NandO>  (44) 
5

>  <i_qp_#acid>  (44) 
0

>  <i_qp_#amide>  (44) 
0

>  <i_qp_#amidine>  (44) 
0

>  <i_qp_#amine>  (44) 
1

>  <i_qp_#in34>  (44) 
0

>  <i_qp_#in56>  (44) 
23

>  <i_qp_#metab>  (44) 
9

>  <i_qp_#nonHatm>  (44) 
28

>  <i_qp_#noncon>  (44) 
0

>  <i_qp_#ringatoms>  (44) 
23

>  <i_qp_#rotor>  (44) 
5

>  <i_qp_#rtvFG>  (44) 
0

>  <i_qp_#stars>  (44) 
2

>  <i_qp_CNS>  (44) 
1

>  <i_qp_HumanOralAbsorption>  (44) 
3

>  <i_qp_RuleOfFive>  (44) 
0

>  <i_qp_RuleOfThree>  (44) 
1

>  <i_sd_BIOSOLVEIT.INFINISEE\_REAGENT1\_NAME>  (44) 
23868216

>  <i_sd_BIOSOLVEIT.INFINISEE\_REAGENT2\_NAME>  (44) 
7547738

>  <i_sd_BIOSOLVEIT.INFINISEE\_RESULT\_RANK>  (44) 
11440

>  <i_sd_version>  (44) 
0

>  <b_lp_Chiralities_Consistent>  (44) 
1

>  <b_sd_chiral_flag>  (44) 
0

>  <canonical_id>  (44) 
ATP-HTVS-5801E8FB792E

>  <compound_code>  (44) 
25635

>  <title>  (44) 
m_270004bbb____23868216____7547738

>  <variant>  (44) 
25635-1

>  <source_file>  (44) 
运行/运行/ATP-VSW/ATP-VSW-DOCK_HTVS_1-003_lib/ATP-VSW-DOCK_HTVS_1-003_lib.mae

>  <canonical_smiles>  (44) 
CNc1ccccc1C[NH2+]Cc1cn(-c2ccccc2)nc1-c1cccnc1

>  <scaffold>  (44) 
c1ccc(C[NH2+]Cc2cn(-c3ccccc3)nc2-c2cccnc2)cc1

>  <molecular_formula>  (44) 
C23H24N5+

>  <acquisition_id_v2>  (44) 
ATP-ACQ2-0044

>  <selection_arm_v2>  (44) 
local_structure_bridge

>  <priority_v2>  (44) 
P1

$$$$
ATP-ACQ2-0045
     RDKit          3D

 55 58  0  0  0  0  0  0  0  0999 V2000
  194.4175  183.7222  158.5829 O   0  0  0  0  0  0  0  0  0  0  0  0
  195.5331  184.2284  158.7029 C   0  0  0  0  0  0  0  0  0  0  0  0
  195.6485  185.5522  159.1406 N   0  0  0  0  0  0  0  0  0  0  0  0
  196.7712  186.1517  159.2754 C   0  0  0  0  0  0  0  0  0  0  0  0
  198.0577  185.4510  159.0143 C   0  0  0  0  0  0  0  0  0  0  0  0
  197.9764  184.1167  158.5579 C   0  0  0  0  0  0  0  0  0  0  0  0
  196.6691  183.5236  158.4152 N   0  0  0  0  0  0  0  0  0  0  0  0
  196.5484  182.1173  157.9567 C   0  0  0  0  0  0  0  0  0  0  0  0
  196.8873  181.9094  156.4723 C   0  0  0  0  0  0  0  0  0  0  0  0
  196.9500  182.8584  155.6915 O   0  0  0  0  0  0  0  0  0  0  0  0
  197.1501  180.6386  156.1311 N   0  0  0  0  0  0  0  0  0  0  0  0
  197.6478  180.1582  154.8963 C   0  0  0  0  0  0  0  0  0  0  0  0
  198.6607  179.1655  154.9067 C   0  0  0  0  0  0  0  0  0  0  0  0
  199.1553  178.6811  156.1310 N   0  0  0  0  0  0  0  0  0  0  0  0
  200.4803  178.1048  156.2819 C   0  0  0  0  0  0  0  0  0  0  0  0
  200.6298  177.5094  157.6880 C   0  0  0  0  0  0  0  0  0  0  0  0
  201.5699  179.1546  156.0157 C   0  0  0  0  0  0  0  0  0  0  0  0
  199.1630  178.6831  153.6725 C   0  0  0  0  0  0  0  0  0  0  0  0
  198.6498  179.1642  152.4507 C   0  0  0  0  0  0  0  0  0  0  0  0
  197.6386  180.1417  152.4470 C   0  0  0  0  0  0  0  0  0  0  0  0
  197.1411  180.6393  153.6659 C   0  0  0  0  0  0  0  0  0  0  0  0
  199.1810  183.4228  158.2595 C   0  0  0  0  0  0  0  0  0  0  0  0
  200.4354  184.0464  158.4125 C   0  0  0  0  0  0  0  0  0  0  0  0
  200.5071  185.3646  158.8909 C   0  0  0  0  0  0  0  0  0  0  0  0
  199.3279  186.0550  159.2030 C   0  0  0  0  0  0  0  0  0  0  0  0
  196.7291  187.5644  159.7373 C   0  0  0  0  0  0  0  0  0  0  0  0
  195.9696  187.9120  160.8808 C   0  0  0  0  0  0  0  0  0  0  0  0
  195.9445  189.2487  161.3319 C   0  0  0  0  0  0  0  0  0  0  0  0
  196.6726  190.2395  160.6459 C   0  0  0  0  0  0  0  0  0  0  0  0
  197.4120  189.9025  159.4981 C   0  0  0  0  0  0  0  0  0  0  0  0
  197.4221  188.5766  159.0312 C   0  0  0  0  0  0  0  0  0  0  0  0
  197.2173  181.5097  158.5620 H   0  0  0  0  0  0  0  0  0  0  0  0
  195.5705  181.6640  158.1395 H   0  0  0  0  0  0  0  0  0  0  0  0
  196.9876  179.9410  156.8585 H   0  0  0  0  0  0  0  0  0  0  0  0
  198.5487  178.6659  156.9609 H   0  0  0  0  0  0  0  0  0  0  0  0
  200.5778  177.2675  155.5894 H   0  0  0  0  0  0  0  0  0  0  0  0
  201.6101  177.0439  157.8035 H   0  0  0  0  0  0  0  0  0  0  0  0
  199.8699  176.7429  157.8596 H   0  0  0  0  0  0  0  0  0  0  0  0
  200.5214  178.2673  158.4682 H   0  0  0  0  0  0  0  0  0  0  0  0
  202.5601  178.7235  156.1249 H   0  0  0  0  0  0  0  0  0  0  0  0
  201.4907  179.9834  156.7155 H   0  0  0  0  0  0  0  0  0  0  0  0
  201.5090  179.5675  155.0122 H   0  0  0  0  0  0  0  0  0  0  0  0
  199.9225  177.9201  153.6461 H   0  0  0  0  0  0  0  0  0  0  0  0
  199.0259  178.7712  151.5178 H   0  0  0  0  0  0  0  0  0  0  0  0
  197.2453  180.5081  151.5087 H   0  0  0  0  0  0  0  0  0  0  0  0
  196.3662  181.3909  153.6575 H   0  0  0  0  0  0  0  0  0  0  0  0
  199.1762  182.4074  157.8946 H   0  0  0  0  0  0  0  0  0  0  0  0
  201.3462  183.5187  158.1643 H   0  0  0  0  0  0  0  0  0  0  0  0
  201.4604  185.8572  159.0206 H   0  0  0  0  0  0  0  0  0  0  0  0
  199.4353  187.0574  159.5894 H   0  0  0  0  0  0  0  0  0  0  0  0
  195.4133  187.1559  161.4194 H   0  0  0  0  0  0  0  0  0  0  0  0
  195.3483  189.5199  162.1877 H   0  0  0  0  0  0  0  0  0  0  0  0
  196.6624  191.2592  160.9990 H   0  0  0  0  0  0  0  0  0  0  0  0
  197.9841  190.6568  158.9769 H   0  0  0  0  0  0  0  0  0  0  0  0
  197.9863  188.3369  158.1398 H   0  0  0  0  0  0  0  0  0  0  0  0
  1  2  2  0
  2  3  1  0
  2  7  1  0
  3  4  2  0
  4  5  1  0
  4 26  1  0
  5  6  1  0
  5 25  2  0
  6  7  1  0
  6 22  2  0
  7  8  1  0
  8  9  1  0
  8 32  1  0
  8 33  1  0
  9 10  2  0
  9 11  1  0
 11 12  1  0
 11 34  1  0
 12 13  1  0
 12 21  2  0
 13 14  1  0
 13 18  2  0
 14 15  1  0
 14 35  1  0
 15 16  1  0
 15 17  1  0
 15 36  1  0
 16 37  1  0
 16 38  1  0
 16 39  1  0
 17 40  1  0
 17 41  1  0
 17 42  1  0
 18 19  1  0
 18 43  1  0
 19 20  2  0
 19 44  1  0
 20 21  1  0
 20 45  1  0
 21 46  1  0
 22 23  1  0
 22 47  1  0
 23 24  2  0
 23 48  1  0
 24 25  1  0
 24 49  1  0
 25 50  1  0
 26 27  2  0
 26 31  1  0
 27 28  1  0
 27 51  1  0
 28 29  2  0
 28 52  1  0
 29 30  1  0
 29 53  1  0
 30 31  2  0
 30 54  1  0
 31 55  1  0
M  END
>  <s_epik_cmdline>  (45) 
J2VwaWtfcHl0aG9uJywgJy1waCcsICc3LjAwMDAwMCcsICctcGh0JywgJzIuMDAwMDAwJywgJy1tcycsICcxNicsICctdG4nLCAnOCcsICctbWEnLCAnMjAwJywgJy1pbWFlJywgJzxpbmZpbGUubWFlPicsICctb21hZScsICc8b3V0ZmlsZS5tYWU+Jw==

>  <s_epik_input>  (45) 
W2NIXTFbY0hdW2NIXVtjSF1bY0hdYzEtYzJuYyg9TyluKGMoYzIzKVtjSF1bY0hdW2NIXVtjSF0zKVtDSDJdQyg9TylbTkhdYzRjKFtOSF1bQ0hdKFtDSDNdKVtDSDNdKVtjSF1bY0hdW2NIXVtjSF00

>  <s_i_glide_gridfile>  (45) 
ATP-Grid

>  <s_lp_Force_Field>  (45) 
OPLS_2005

>  <s_lp_Variant>  (45) 
rxn101____EMOL108753642____EMOL30145481-1

>  <s_lp_label>  (45) 
2650_sdstereoexpander_1_neutralizer_1_epik_1_stereoizer_1

>  <s_m_source_file>  (45) 
ATP-VSW-LIGPREP-001-in.maegz

>  <s_sd_BIOSOLVEIT.INFINISEE\_QUERY\_NAME>  (45) 
Ref-Lig

>  <s_sd_BIOSOLVEIT.INFINISEE\_QUERY\_SMILES>  (45) 
S(c1nc2c(cc1C[NH2+]Cc3ccc(cc3)C[NH+](C)C)cccc2)Cc4ccccc4

>  <s_sd_BIOSOLVEIT.INFINISEE\_REACTION\_NAME>  (45) 
rxn101

>  <s_sd_BIOSOLVEIT.INFINISEE\_REAGENT1\_NAME>  (45) 
EMOL108753642

>  <s_sd_BIOSOLVEIT.INFINISEE\_REAGENT1\_SMILES>  (45) 
N(c1c(N)cccc1)C(C)C

>  <s_sd_BIOSOLVEIT.INFINISEE\_REAGENT2\_NAME>  (45) 
EMOL30145481

>  <s_sd_BIOSOLVEIT.INFINISEE\_REAGENT2\_SMILES>  (45) 
O=C1N=C(c2c(N1CC(=O)O)cccc2)c3ccccc3

>  <s_sd_BIOSOLVEIT.INFINISEE\_SPACE>  (45) 
eXplore_7tr_2022-12

>  <s_vsw_compound_code>  (45) 
84769

>  <s_vsw_variant>  (45) 
84769-1

>  <r_epik_Charging_Adjusted_Penalty>  (45) 
0.00527195315943506

>  <r_epik_Ionization_Penalty>  (45) 
0.0053

>  <r_epik_Ionization_Penalty_Charging>  (45) 
0

>  <r_epik_Ionization_Penalty_Neutral>  (45) 
0.0053

>  <r_epik_State_Penalty>  (45) 
0.0053

>  <r_i_docking_score>  (45) 
-4.3909549127089598

>  <r_i_glide_ecoul>  (45) 
-5.2939968109130904

>  <r_i_glide_eff_state_penalty>  (45) 
0.0053

>  <r_i_glide_einternal>  (45) 
3.3696215152740501

>  <r_i_glide_emodel>  (45) 
-54.4867991019564

>  <r_i_glide_energy>  (45) 
-43.666700363159201

>  <r_i_glide_erotb>  (45) 
0.69539339701561398

>  <r_i_glide_esite>  (45) 
-0.26671543858066399

>  <r_i_glide_evdw>  (45) 
-38.372703552246101

>  <r_i_glide_gscore>  (45) 
-4.3962549127089598

>  <r_i_glide_hbond>  (45) 
-0.286046733976073

>  <r_i_glide_ligand_efficiency>  (45) 
-0.14164370686157901

>  <r_i_glide_ligand_efficiency_ln>  (45) 
-0.990294899423106

>  <r_i_glide_ligand_efficiency_sa>  (45) 
-0.444956799758638

>  <r_i_glide_lipo>  (45) 
-1.07984718643709

>  <r_i_glide_metal>  (45) 
-0

>  <r_i_glide_rewards>  (45) 
-0.74630425148147606

>  <r_lp_Energy>  (45) 
36.803417000000003

>  <r_qp_ACxDN^.5/SA>  (45) 
0.0131232

>  <r_qp_CIQPlogS>  (45) 
-6.0810000000000004

>  <r_qp_EA(eV)>  (45) 
0.88600000000000001

>  <r_qp_FISA>  (45) 
94.402000000000001

>  <r_qp_FOSA>  (45) 
197.07300000000001

>  <r_qp_IP(eV)>  (45) 
8.1880000000000006

>  <r_qp_Jm>  (45) 
0.0152759212265358

>  <r_qp_PISA>  (45) 
462.87400000000002

>  <r_qp_PSA>  (45) 
85.668000000000006

>  <r_qp_PercentHumanOralAbsorption>  (45) 
100

>  <r_qp_QPPCaco>  (45) 
1260.9200000000001

>  <r_qp_QPPMDCK>  (45) 
635.596

>  <r_qp_QPlogBB>  (45) 
-0.82699999999999996

>  <r_qp_QPlogHERG>  (45) 
-7.2649999999999997

>  <r_qp_QPlogKhsa>  (45) 
0.60199999999999998

>  <r_qp_QPlogKp>  (45) 
-1.0529999999999999

>  <r_qp_QPlogPC16>  (45) 
15.234999999999999

>  <r_qp_QPlogPo/w>  (45) 
4.548

>  <r_qp_QPlogPoct>  (45) 
23.966000000000001

>  <r_qp_QPlogPw>  (45) 
13.826000000000001

>  <r_qp_QPlogS>  (45) 
-6.3789999999999996

>  <r_qp_QPpolrz>  (45) 
48.340000000000003

>  <r_qp_SASA>  (45) 
754.34900000000005

>  <r_qp_SAamideO>  (45) 
0

>  <r_qp_SAfluorine>  (45) 
0

>  <r_qp_WPSA>  (45) 
0

>  <r_qp_accptHB>  (45) 
7

>  <r_qp_dip^2/V>  (45) 
0.086471900000000004

>  <r_qp_dipole>  (45) 
10.794

>  <r_qp_donorHB>  (45) 
2

>  <r_qp_glob>  (45) 
0.7821205

>  <r_qp_mol_MW>  (45) 
412.49000000000001

>  <r_qp_volume>  (45) 
1347.4770000000001

>  <r_sd_BIOSOLVEIT.INFINISEE\_FTREES\_SIMILARITY>  (45) 
0.91000000000000003

>  <r_sd_BIOSOLVEIT.LOGP>  (45) 
4.5225

>  <r_sd_BIOSOLVEIT.MOLECULAR\_WEIGHT>  (45) 
412.49099999999999

>  <r_sd_BIOSOLVEIT.TPSA>  (45) 
76.019999999999996

>  <i_epik_Tot_Q>  (45) 
0

>  <i_epik_Tot_abs_Q>  (45) 
0

>  <i_f3d_flags>  (45) 
0

>  <i_i_glide_confnum>  (45) 
3

>  <i_i_glide_lignum>  (45) 
1134

>  <i_i_glide_posenum>  (45) 
16

>  <i_i_glide_rotatable_bonds>  (45) 
7

>  <i_lp_mmshare_version>  (45) 
65135

>  <i_m_ct_format>  (45) 
2

>  <i_m_source_file_index>  (45) 
2650

>  <i_qp_#NandO>  (45) 
6

>  <i_qp_#acid>  (45) 
0

>  <i_qp_#amide>  (45) 
0

>  <i_qp_#amidine>  (45) 
0

>  <i_qp_#amine>  (45) 
0

>  <i_qp_#in34>  (45) 
0

>  <i_qp_#in56>  (45) 
22

>  <i_qp_#metab>  (45) 
6

>  <i_qp_#nonHatm>  (45) 
31

>  <i_qp_#noncon>  (45) 
0

>  <i_qp_#ringatoms>  (45) 
22

>  <i_qp_#rotor>  (45) 
6

>  <i_qp_#rtvFG>  (45) 
0

>  <i_qp_#stars>  (45) 
1

>  <i_qp_CNS>  (45) 
-1

>  <i_qp_HumanOralAbsorption>  (45) 
1

>  <i_qp_RuleOfFive>  (45) 
0

>  <i_qp_RuleOfThree>  (45) 
1

>  <i_sd_BIOSOLVEIT.INFINISEE\_RESULT\_RANK>  (45) 
46373

>  <i_sd_version>  (45) 
0

>  <b_lp_Chiralities_Consistent>  (45) 
1

>  <b_sd_chiral_flag>  (45) 
0

>  <canonical_id>  (45) 
ATP-HTVS-675D7E7E37EF

>  <compound_code>  (45) 
84769

>  <title>  (45) 
rxn101____EMOL108753642____EMOL30145481

>  <variant>  (45) 
84769-1

>  <source_file>  (45) 
运行/运行/ATP-VSW/ATP-VSW-DOCK_HTVS_1-001_lib/ATP-VSW-DOCK_HTVS_1-001_lib

>  <canonical_smiles>  (45) 
CC(C)Nc1ccccc1NC(=O)Cn1c(=O)nc(-c2ccccc2)c2ccccc21

>  <scaffold>  (45) 
O=C(Cn1c(=O)nc(-c2ccccc2)c2ccccc21)Nc1ccccc1

>  <molecular_formula>  (45) 
C25H24N4O2

>  <acquisition_id_v2>  (45) 
ATP-ACQ2-0045

>  <selection_arm_v2>  (45) 
scaffold_score_exploration

>  <priority_v2>  (45) 
P1

$$$$
ATP-ACQ2-0046
     RDKit          3D

 53 55  0  0  0  0  0  0  0  0999 V2000
  199.8042  177.2875  150.0122 O   0  0  0  0  0  0  0  0  0  0  0  0
  198.7902  178.1578  150.2883 C   0  0  0  0  0  0  0  0  0  0  0  0
  198.6535  178.6928  151.5815 C   0  0  0  0  0  0  0  0  0  0  0  0
  197.6086  179.5966  151.8915 C   0  0  0  0  0  0  0  0  0  0  0  0
  197.4726  180.1549  153.2485 C   0  0  0  0  0  0  0  0  0  0  0  0
  196.8966  181.4298  153.4756 C   0  0  0  0  0  0  0  0  0  0  0  0
  196.7503  181.9845  154.6904 N   0  0  0  0  0  0  0  0  0  0  0  0
  197.1611  181.2780  155.7561 C   0  0  0  0  0  0  0  0  0  0  0  0
  197.7675  180.0142  155.6652 C   0  0  0  0  0  0  0  0  0  0  0  0
  197.9167  179.4499  154.3939 C   0  0  0  0  0  0  0  0  0  0  0  0
  196.9578  181.9459  157.0842 C   0  0  0  0  0  0  0  0  0  0  0  0
  195.5473  181.9059  157.5210 N   0  0  0  0  0  0  0  0  0  0  0  0
  195.3251  182.2275  158.9469 C   0  0  0  0  0  0  0  0  0  0  0  0
  195.7611  183.6171  159.2553 C   0  0  0  0  0  0  0  0  0  0  0  0
  194.8275  184.6711  159.3988 C   0  0  0  0  0  0  0  0  0  0  0  0
  195.2736  185.9912  159.6277 C   0  0  0  0  0  0  0  0  0  0  0  0
  196.6615  186.2701  159.7297 C   0  0  0  0  0  0  0  0  0  0  0  0
  197.5956  185.1945  159.6744 C   0  0  0  0  0  0  0  0  0  0  0  0
  197.1430  183.9022  159.3994 C   0  0  0  0  0  0  0  0  0  0  0  0
  197.1642  187.6989  159.9162 C   0  0  0  0  0  0  0  0  0  0  0  0
  198.1604  188.1752  158.9035 N   0  0  0  0  0  0  0  0  0  0  0  0
  197.5777  188.3018  157.5549 C   0  0  0  0  0  0  0  0  0  0  0  0
  199.4358  187.4037  158.8427 C   0  0  0  0  0  0  0  0  0  0  0  0
  196.7073  179.9529  150.8599 C   0  0  0  0  0  0  0  0  0  0  0  0
  196.8450  179.4260  149.5637 C   0  0  0  0  0  0  0  0  0  0  0  0
  197.8850  178.5231  149.2756 C   0  0  0  0  0  0  0  0  0  0  0  0
  194.9490  182.4285  156.8942 H   0  0  0  0  0  0  0  0  0  0  0  0
  200.3814  177.1373  150.7451 H   0  0  0  0  0  0  0  0  0  0  0  0
  199.3693  178.4095  152.3391 H   0  0  0  0  0  0  0  0  0  0  0  0
  196.5413  182.0378  152.6580 H   0  0  0  0  0  0  0  0  0  0  0  0
  198.0810  179.4762  156.5467 H   0  0  0  0  0  0  0  0  0  0  0  0
  198.3593  178.4660  154.3130 H   0  0  0  0  0  0  0  0  0  0  0  0
  197.6075  181.4601  157.8195 H   0  0  0  0  0  0  0  0  0  0  0  0
  197.2651  182.9751  156.9663 H   0  0  0  0  0  0  0  0  0  0  0  0
  194.2648  182.0967  159.1871 H   0  0  0  0  0  0  0  0  0  0  0  0
  195.8705  181.5227  159.5964 H   0  0  0  0  0  0  0  0  0  0  0  0
  193.7597  184.4617  159.3390 H   0  0  0  0  0  0  0  0  0  0  0  0
  194.5556  186.7726  159.7354 H   0  0  0  0  0  0  0  0  0  0  0  0
  198.6275  185.3180  159.8002 H   0  0  0  0  0  0  0  0  0  0  0  0
  197.8875  183.1383  159.2629 H   0  0  0  0  0  0  0  0  0  0  0  0
  196.3117  188.3750  159.8982 H   0  0  0  0  0  0  0  0  0  0  0  0
  197.5547  187.7883  160.9306 H   0  0  0  0  0  0  0  0  0  0  0  0
  197.2334  187.3372  157.1754 H   0  0  0  0  0  0  0  0  0  0  0  0
  198.3163  188.6911  156.8538 H   0  0  0  0  0  0  0  0  0  0  0  0
  196.7336  188.9919  157.5580 H   0  0  0  0  0  0  0  0  0  0  0  0
  199.2982  186.4416  158.4344 H   0  0  0  0  0  0  0  0  0  0  0  0
  199.8788  187.3224  159.8439 H   0  0  0  0  0  0  0  0  0  0  0  0
  200.1821  187.9048  158.2024 H   0  0  0  0  0  0  0  0  0  0  0  0
  195.8934  180.6356  151.0550 H   0  0  0  0  0  0  0  0  0  0  0  0
  196.1484  179.7097  148.7893 H   0  0  0  0  0  0  0  0  0  0  0  0
  197.9893  178.1144  148.2819 H   0  0  0  0  0  0  0  0  0  0  0  0
  198.4010  189.1024  159.1999 H   0  0  0  0  0  0  0  0  0  0  0  0
  195.3010  180.9020  157.4342 H   0  0  0  0  0  0  0  0  0  0  0  0
  1  2  1  0
  1 28  1  0
  2  3  2  0
  2 26  1  0
  3  4  1  0
  3 29  1  0
  4  5  1  0
  4 24  2  0
  5  6  1  0
  5 10  2  0
  6  7  2  0
  6 30  1  0
  7  8  1  0
  8  9  2  0
  8 11  1  0
  9 10  1  0
  9 31  1  0
 10 32  1  0
 11 12  1  0
 11 33  1  0
 11 34  1  0
 12 13  1  0
 12 27  1  0
 12 53  1  0
 13 14  1  0
 13 35  1  0
 13 36  1  0
 14 15  1  0
 14 19  2  0
 15 16  2  0
 15 37  1  0
 16 17  1  0
 16 38  1  0
 17 18  2  0
 17 20  1  0
 18 19  1  0
 18 39  1  0
 19 40  1  0
 20 21  1  0
 20 41  1  0
 20 42  1  0
 21 22  1  0
 21 23  1  0
 21 52  1  0
 22 43  1  0
 22 44  1  0
 22 45  1  0
 23 46  1  0
 23 47  1  0
 23 48  1  0
 24 25  1  0
 24 49  1  0
 25 26  2  0
 25 50  1  0
 26 51  1  0
M  CHG  2  12   1  21   1
M  END
>  <s_epik_cmdline>  (46) 
J2VwaWtfcHl0aG9uJywgJy1waCcsICc3LjAwMDAwMCcsICctcGh0JywgJzIuMDAwMDAwJywgJy1tcycsICcxNicsICctdG4nLCAnOCcsICctbWEnLCAnMjAwJywgJy1pbWFlJywgJzxpbmZpbGUubWFlPicsICctb21hZScsICc8b3V0ZmlsZS5tYWU+Jw==

>  <s_epik_input>  (46) 
W09IXWMxW2NIXWMoW2NIXVtjSF1bY0hdMSktYzJbY0hdbmMoW2NIXVtjSF0yKVtDSDJdW05IXVtDSDJdYzNbY0hdW2NIXWMoW2NIXVtjSF0zKVtDSDJdTihbQ0gzXSlbQ0gzXQ==

>  <s_i_glide_gridfile>  (46) 
ATP-Grid

>  <s_lp_Force_Field>  (46) 
OPLS_2005

>  <s_lp_Variant>  (46) 
WXDL_15E____QS5063____LN00174727____BT2076-1

>  <s_lp_label>  (46) 
627_sdstereoexpander_1_neutralizer_1_epik_1_stereoizer_1

>  <s_m_source_file>  (46) 
ATP-VSW-LIGPREP-001-in.maegz

>  <s_sd_BIOSOLVEIT.INFINISEE\_QUERY\_NAME>  (46) 
Ref-Lig

>  <s_sd_BIOSOLVEIT.INFINISEE\_QUERY\_SMILES>  (46) 
S(c1nc2c(cc1C[NH2+]Cc3ccc(cc3)C[NH+](C)C)cccc2)Cc4ccccc4

>  <s_sd_BIOSOLVEIT.INFINISEE\_REACTION\_NAME>  (46) 
WXDL_15E

>  <s_sd_BIOSOLVEIT.INFINISEE\_REAGENT1\_NAME>  (46) 
QS5063

>  <s_sd_BIOSOLVEIT.INFINISEE\_REAGENT1\_SMILES>  (46) 
O=Cc1ccc(cc1)CN(C)C

>  <s_sd_BIOSOLVEIT.INFINISEE\_REAGENT2\_NAME>  (46) 
LN00174727

>  <s_sd_BIOSOLVEIT.INFINISEE\_REAGENT2\_SMILES>  (46) 
Brc1cnc(cc1)CNC(=O)OC(C)(C)C

>  <s_sd_BIOSOLVEIT.INFINISEE\_REAGENT3\_NAME>  (46) 
BT2076

>  <s_sd_BIOSOLVEIT.INFINISEE\_REAGENT3\_SMILES>  (46) 
O(C(C(O)(C)C)(C)C)B(O)c1cc(O)ccc1

>  <s_sd_BIOSOLVEIT.INFINISEE\_SPACE>  (46) 
GalaXi_12bn_2023-03

>  <s_vsw_compound_code>  (46) 
20033

>  <s_vsw_variant>  (46) 
20033-1

>  <r_epik_Charging_Adjusted_Penalty>  (46) 
0.355252158851251

>  <r_epik_Ionization_Penalty>  (46) 
0.17760000000000001

>  <r_epik_Ionization_Penalty_Charging>  (46) 
0.17630000000000001

>  <r_epik_Ionization_Penalty_Neutral>  (46) 
0.0012999999999999999

>  <r_epik_State_Penalty>  (46) 
0.17899999999999999

>  <r_i_docking_score>  (46) 
-6.1795954276148004

>  <r_i_glide_ecoul>  (46) 
-13.192979812622101

>  <r_i_glide_eff_state_penalty>  (46) 
0.17899999999999999

>  <r_i_glide_einternal>  (46) 
3.15296530723572

>  <r_i_glide_emodel>  (46) 
-71.820822963905201

>  <r_i_glide_energy>  (46) 
-44.706922531127901

>  <r_i_glide_erotb>  (46) 
0.93585446189056398

>  <r_i_glide_esite>  (46) 
-0.10000000000000001

>  <r_i_glide_evdw>  (46) 
-31.513942718505898

>  <r_i_glide_gscore>  (46) 
-6.3585954276147998

>  <r_i_glide_hbond>  (46) 
-0.40000000000000002

>  <r_i_glide_ligand_efficiency>  (46) 
-0.237676747215954

>  <r_i_glide_ligand_efficiency_ln>  (46) 
-1.4512577092688801

>  <r_i_glide_ligand_efficiency_sa>  (46) 
-0.70411642841442301

>  <r_i_glide_lipo>  (46) 
-1.98845996350494

>  <r_i_glide_metal>  (46) 
-0

>  <r_i_glide_rewards>  (46) 
-1.25134581818182

>  <r_lp_Energy>  (46) 
15.785899000000001

>  <r_lp_tautomer_probability>  (46) 
0.999999999997365

>  <r_qp_ACxDN^.5/SA>  (46) 
0.0102761

>  <r_qp_CIQPlogS>  (46) 
-3.1120000000000001

>  <r_qp_EA(eV)>  (46) 
0.58899999999999997

>  <r_qp_FISA>  (46) 
86.221000000000004

>  <r_qp_FOSA>  (46) 
252.26499999999999

>  <r_qp_IP(eV)>  (46) 
8.9809999999999999

>  <r_qp_Jm>  (46) 
0.00061028406918430303

>  <r_qp_PISA>  (46) 
384.02600000000001

>  <r_qp_PSA>  (46) 
53.697000000000003

>  <r_qp_PercentHumanOralAbsorption>  (46) 
82.905000000000001

>  <r_qp_QPPCaco>  (46) 
93.771000000000001

>  <r_qp_QPPMDCK>  (46) 
46.884999999999998

>  <r_qp_QPlogBB>  (46) 
-0.076999999999999999

>  <r_qp_QPlogHERG>  (46) 
-8.4489999999999998

>  <r_qp_QPlogKhsa>  (46) 
0.56999999999999995

>  <r_qp_QPlogKp>  (46) 
-5.1130000000000004

>  <r_qp_QPlogPC16>  (46) 
13.679

>  <r_qp_QPlogPo/w>  (46) 
3.5289999999999999

>  <r_qp_QPlogPoct>  (46) 
19.591000000000001

>  <r_qp_QPlogPw>  (46) 
10.992000000000001

>  <r_qp_QPlogS>  (46) 
-3.6429999999999998

>  <r_qp_QPpolrz>  (46) 
42.283000000000001

>  <r_qp_SASA>  (46) 
722.51199999999994

>  <r_qp_SAamideO>  (46) 
0

>  <r_qp_SAfluorine>  (46) 
0

>  <r_qp_WPSA>  (46) 
0

>  <r_qp_accptHB>  (46) 
5.25

>  <r_qp_dip^2/V>  (46) 
0.012428

>  <r_qp_dipole>  (46) 
3.9369999999999998

>  <r_qp_donorHB>  (46) 
2

>  <r_qp_glob>  (46) 
0.77548660000000003

>  <r_qp_mol_MW>  (46) 
347.459

>  <r_qp_volume>  (46) 
1247.0440000000001

>  <r_sd_BIOSOLVEIT.INFINISEE\_FTREES\_SIMILARITY>  (46) 
0.91700000000000004

>  <r_sd_BIOSOLVEIT.LOGP>  (46) 
1.3623000000000001

>  <r_sd_BIOSOLVEIT.MOLECULAR\_WEIGHT>  (46) 
349.47500000000002

>  <r_sd_BIOSOLVEIT.TPSA>  (46) 
54.170000000000002

>  <i_epik_Tot_Q>  (46) 
2

>  <i_epik_Tot_abs_Q>  (46) 
2

>  <i_f3d_flags>  (46) 
0

>  <i_i_glide_confnum>  (46) 
1

>  <i_i_glide_lignum>  (46) 
71

>  <i_i_glide_posenum>  (46) 
3

>  <i_i_glide_rotatable_bonds>  (46) 
8

>  <i_lp_mmshare_version>  (46) 
65135

>  <i_m_ct_format>  (46) 
2

>  <i_m_source_file_index>  (46) 
627

>  <i_qp_#NandO>  (46) 
4

>  <i_qp_#acid>  (46) 
0

>  <i_qp_#amide>  (46) 
0

>  <i_qp_#amidine>  (46) 
0

>  <i_qp_#amine>  (46) 
2

>  <i_qp_#in34>  (46) 
0

>  <i_qp_#in56>  (46) 
18

>  <i_qp_#metab>  (46) 
7

>  <i_qp_#nonHatm>  (46) 
26

>  <i_qp_#noncon>  (46) 
0

>  <i_qp_#ringatoms>  (46) 
18

>  <i_qp_#rotor>  (46) 
8

>  <i_qp_#rtvFG>  (46) 
0

>  <i_qp_#stars>  (46) 
0

>  <i_qp_CNS>  (46) 
1

>  <i_qp_HumanOralAbsorption>  (46) 
2

>  <i_qp_RuleOfFive>  (46) 
0

>  <i_qp_RuleOfThree>  (46) 
1

>  <i_sd_BIOSOLVEIT.INFINISEE\_RESULT\_RANK>  (46) 
24091

>  <i_sd_version>  (46) 
0

>  <b_lp_Chiralities_Consistent>  (46) 
1

>  <b_sd_chiral_flag>  (46) 
0

>  <canonical_id>  (46) 
ATP-HTVS-92BA88CED8DA

>  <compound_code>  (46) 
20033

>  <title>  (46) 
WXDL_15E____QS5063____LN00174727____BT2076

>  <variant>  (46) 
20033-1

>  <source_file>  (46) 
运行/运行/ATP-VSW/ATP-VSW-DOCK_HTVS_1-001_lib/ATP-VSW-DOCK_HTVS_1-001_lib

>  <canonical_smiles>  (46) 
C[NH+](C)Cc1ccc(C[NH2+]Cc2ccc(-c3cccc(O)c3)cn2)cc1

>  <scaffold>  (46) 
c1ccc(C[NH2+]Cc2ccc(-c3ccccc3)cn2)cc1

>  <molecular_formula>  (46) 
C22H27N3O+2

>  <acquisition_id_v2>  (46) 
ATP-ACQ2-0046

>  <selection_arm_v2>  (46) 
exploitation

>  <priority_v2>  (46) 
P1

$$$$
ATP-ACQ2-0047
     RDKit          3D

 58 60  0  0  0  0  0  0  0  0999 V2000
  199.6127  184.2952  159.7140 O   0  0  0  0  0  0  0  0  0  0  0  0
  200.4179  183.4173  158.9910 C   0  0  0  0  0  0  0  0  0  0  0  0
  201.4803  182.7686  159.6705 C   0  0  0  0  0  0  0  0  0  0  0  0
  201.6744  183.1222  160.9775 O   0  0  0  0  0  0  0  0  0  0  0  0
  202.7554  182.5161  161.6514 C   0  0  0  0  0  0  0  0  0  0  0  0
  202.2905  181.8179  158.9749 C   0  0  0  0  0  0  0  0  0  0  0  0
  202.0510  181.5188  157.6229 C   0  0  0  0  0  0  0  0  0  0  0  0
  201.0790  182.2328  156.9639 C   0  0  0  0  0  0  0  0  0  0  0  0
  200.2707  183.1728  157.6333 C   0  0  0  0  0  0  0  0  0  0  0  0
  198.5441  184.9574  159.0310 C   0  0  0  0  0  0  0  0  0  0  0  0
  197.4253  183.9935  158.7925 C   0  0  0  0  0  0  0  0  0  0  0  0
  197.2843  183.5284  157.5318 O   0  0  0  0  0  0  0  0  0  0  0  0
  196.3419  182.5594  157.5145 C   0  0  0  0  0  0  0  0  0  0  0  0
  195.7489  182.5083  158.7597 C   0  0  0  0  0  0  0  0  0  0  0  0
  196.4548  183.4410  159.5842 C   0  0  0  0  0  0  0  0  0  0  0  0
  196.1668  181.8340  156.2407 C   0  0  0  0  0  0  0  0  0  0  0  0
  196.9902  180.6178  156.1329 N   0  0  0  0  0  0  0  0  0  0  0  0
  198.4067  180.8188  156.3668 C   0  0  0  0  0  0  0  0  0  0  0  0
  199.2338  180.1597  155.3009 C   0  0  0  0  0  0  0  0  0  0  0  0
  199.5898  178.8646  155.4182 C   0  0  0  0  0  0  0  0  0  0  0  0
  200.5673  178.2369  154.6004 C   0  0  0  0  0  0  0  0  0  0  0  0
  201.0639  178.9828  153.4889 C   0  0  0  0  0  0  0  0  0  0  0  0
  200.6308  180.3144  153.3023 C   0  0  0  0  0  0  0  0  0  0  0  0
  199.7365  180.9345  154.1677 C   0  0  0  0  0  0  0  0  0  0  0  0
  200.9976  176.8050  154.8463 C   0  0  0  0  0  0  0  0  0  0  0  0
  201.6079  176.5284  156.1966 N   0  0  0  0  0  0  0  0  0  0  0  0
  200.7626  176.8382  157.3618 C   0  0  0  0  0  0  0  0  0  0  0  0
  202.0775  175.1433  156.3207 C   0  0  0  0  0  0  0  0  0  0  0  0
  196.6252  179.9037  156.8022 H   0  0  0  0  0  0  0  0  0  0  0  0
  202.7728  182.9027  162.6644 H   0  0  0  0  0  0  0  0  0  0  0  0
  203.7060  182.7507  161.1736 H   0  0  0  0  0  0  0  0  0  0  0  0
  202.6215  181.4355  161.6954 H   0  0  0  0  0  0  0  0  0  0  0  0
  203.1393  181.3125  159.4429 H   0  0  0  0  0  0  0  0  0  0  0  0
  202.6321  180.7860  157.0746 H   0  0  0  0  0  0  0  0  0  0  0  0
  200.9221  182.0815  155.9360 H   0  0  0  0  0  0  0  0  0  0  0  0
  199.5294  183.6581  157.0206 H   0  0  0  0  0  0  0  0  0  0  0  0
  198.1917  185.7749  159.6693 H   0  0  0  0  0  0  0  0  0  0  0  0
  198.8859  185.4286  158.1091 H   0  0  0  0  0  0  0  0  0  0  0  0
  194.9250  181.8507  159.0288 H   0  0  0  0  0  0  0  0  0  0  0  0
  196.2954  183.6612  160.6327 H   0  0  0  0  0  0  0  0  0  0  0  0
  195.1474  181.4757  156.1379 H   0  0  0  0  0  0  0  0  0  0  0  0
  196.3891  182.4821  155.4023 H   0  0  0  0  0  0  0  0  0  0  0  0
  198.5598  181.8586  156.2860 H   0  0  0  0  0  0  0  0  0  0  0  0
  198.6829  180.4815  157.3665 H   0  0  0  0  0  0  0  0  0  0  0  0
  199.1025  178.3523  156.2551 H   0  0  0  0  0  0  0  0  0  0  0  0
  201.7182  178.5264  152.7845 H   0  0  0  0  0  0  0  0  0  0  0  0
  201.0104  180.8911  152.4477 H   0  0  0  0  0  0  0  0  0  0  0  0
  199.4819  181.9709  154.0889 H   0  0  0  0  0  0  0  0  0  0  0  0
  200.1319  176.1694  154.6733 H   0  0  0  0  0  0  0  0  0  0  0  0
  201.7293  176.5272  154.0680 H   0  0  0  0  0  0  0  0  0  0  0  0
  199.7790  176.4162  157.2549 H   0  0  0  0  0  0  0  0  0  0  0  0
  200.6825  177.9581  157.4764 H   0  0  0  0  0  0  0  0  0  0  0  0
  201.1761  176.6056  158.3010 H   0  0  0  0  0  0  0  0  0  0  0  0
  201.2500  174.4297  156.1851 H   0  0  0  0  0  0  0  0  0  0  0  0
  202.4897  174.9836  157.3191 H   0  0  0  0  0  0  0  0  0  0  0  0
  202.8648  174.8920  155.5946 H   0  0  0  0  0  0  0  0  0  0  0  0
  196.9415  180.2371  155.1842 H   0  0  0  0  0  0  0  0  0  0  0  0
  202.4302  177.1181  156.2612 H   0  0  0  0  0  0  0  0  0  0  0  0
  1  2  1  0
  1 10  1  0
  2  3  1  0
  2  9  2  0
  3  4  1  0
  3  6  2  0
  4  5  1  0
  5 30  1  0
  5 31  1  0
  5 32  1  0
  6  7  1  0
  6 33  1  0
  7  8  2  0
  7 34  1  0
  8  9  1  0
  8 35  1  0
  9 36  1  0
 10 11  1  0
 10 37  1  0
 10 38  1  0
 11 12  1  0
 11 15  2  0
 12 13  1  0
 13 14  2  0
 13 16  1  0
 14 15  1  0
 14 39  1  0
 15 40  1  0
 16 17  1  0
 16 41  1  0
 16 42  1  0
 17 18  1  0
 17 29  1  0
 17 57  1  0
 18 19  1  0
 18 43  1  0
 18 44  1  0
 19 20  2  0
 19 24  1  0
 20 21  1  0
 20 45  1  0
 21 22  2  0
 21 25  1  0
 22 23  1  0
 22 46  1  0
 23 24  2  0
 23 47  1  0
 24 48  1  0
 25 26  1  0
 25 49  1  0
 25 50  1  0
 26 27  1  0
 26 28  1  0
 26 58  1  0
 27 51  1  0
 27 52  1  0
 27 53  1  0
 28 54  1  0
 28 55  1  0
 28 56  1  0
M  CHG  2  17   1  26   1
M  END
>  <s_epik_cmdline>  (47) 
J2VwaWtfcHl0aG9uJywgJy1waCcsICc3LjAwMDAwMCcsICctcGh0JywgJzIuMDAwMDAwJywgJy1tcycsICcxNicsICctdG4nLCAnOCcsICctbWEnLCAnMjAwJywgJy1pbWFlJywgJzxpbmZpbGUubWFlPicsICctb21hZScsICc8b3V0ZmlsZS5tYWU+Jw==

>  <s_epik_input>  (47) 
W2NIXTFbY0hdW2NIXVtjSF1jKE9bQ0gzXSljMU9bQ0gyXWMyb2MoW2NIXVtjSF0yKVtDSDJdW05IXVtDSDJdYzNbY0hdYyhbY0hdW2NIXVtjSF0zKVtDSDJdTihbQ0gzXSlbQ0gzXQ==

>  <s_i_glide_gridfile>  (47) 
ATP-Grid

>  <s_lp_Force_Field>  (47) 
OPLS_2005

>  <s_lp_Variant>  (47) 
m_270004bbb____8349656____24720270-1

>  <s_lp_label>  (47) 
734_sdstereoexpander_1_neutralizer_1_epik_1_stereoizer_1

>  <s_m_source_file>  (47) 
ATP-VSW-LIGPREP-001-in.maegz

>  <s_sd_BIOSOLVEIT.INFINISEE\_QUERY\_NAME>  (47) 
Ref-Lig

>  <s_sd_BIOSOLVEIT.INFINISEE\_QUERY\_SMILES>  (47) 
S(c1nc2c(cc1C[NH2+]Cc3ccc(cc3)C[NH+](C)C)cccc2)Cc4ccccc4

>  <s_sd_BIOSOLVEIT.INFINISEE\_REACTION\_NAME>  (47) 
m_270004bbb

>  <s_sd_BIOSOLVEIT.INFINISEE\_REAGENT1\_SMILES>  (47) 
[R1*]NCc1cc(ccc1)CN(C)C

>  <s_sd_BIOSOLVEIT.INFINISEE\_REAGENT2\_SMILES>  (47) 
[R1*]CC=1OC(=CC1)COc2c(OC)cccc2

>  <s_sd_BIOSOLVEIT.INFINISEE\_SPACE>  (47) 
REALSpace_44bn_2023-08

>  <s_vsw_compound_code>  (47) 
23457

>  <s_vsw_variant>  (47) 
23457-1

>  <r_epik_Charging_Adjusted_Penalty>  (47) 
0.180880389925271

>  <r_epik_Ionization_Penalty>  (47) 
0.090700000000000003

>  <r_epik_Ionization_Penalty_Charging>  (47) 
0.090700000000000003

>  <r_epik_Ionization_Penalty_Neutral>  (47) 
0

>  <r_epik_State_Penalty>  (47) 
0.090200000000000002

>  <r_i_docking_score>  (47) 
-5.1275646244703301

>  <r_i_glide_ecoul>  (47) 
-14.709337234497101

>  <r_i_glide_eff_state_penalty>  (47) 
0.090200000000000002

>  <r_i_glide_einternal>  (47) 
5.5544953346252397

>  <r_i_glide_emodel>  (47) 
-62.726820522077702

>  <r_i_glide_energy>  (47) 
-42.1919651031494

>  <r_i_glide_erotb>  (47) 
1.0620272489378499

>  <r_i_glide_esite>  (47) 
-0.10000000000000001

>  <r_i_glide_evdw>  (47) 
-27.482627868652301

>  <r_i_glide_gscore>  (47) 
-5.2177646244703304

>  <r_i_glide_hbond>  (47) 
-0.20000000000000001

>  <r_i_glide_ligand_efficiency>  (47) 
-0.183127308016797

>  <r_i_glide_ligand_efficiency_ln>  (47) 
-1.1835924671670099

>  <r_i_glide_ligand_efficiency_sa>  (47) 
-0.55608236335542405

>  <r_i_glide_lipo>  (47) 
-1.14809557661918

>  <r_i_glide_metal>  (47) 
-0

>  <r_i_glide_rewards>  (47) 
-1.2511643181818199

>  <r_lp_Energy>  (47) 
20.793475000000001

>  <r_lp_tautomer_probability>  (47) 
1

>  <r_qp_ACxDN^.5/SA>  (47) 
0.0069887999999999999

>  <r_qp_CIQPlogS>  (47) 
-3.6739999999999999

>  <r_qp_EA(eV)>  (47) 
-0.222

>  <r_qp_FISA>  (47) 
15.130000000000001

>  <r_qp_FOSA>  (47) 
389.12400000000002

>  <r_qp_IP(eV)>  (47) 
8.6690000000000005

>  <r_qp_Jm>  (47) 
0.0030522661324139202

>  <r_qp_PISA>  (47) 
382.71499999999997

>  <r_qp_PSA>  (47) 
42.555

>  <r_qp_PercentHumanOralAbsorption>  (47) 
100

>  <r_qp_QPPCaco>  (47) 
442.81400000000002

>  <r_qp_QPPMDCK>  (47) 
251.02500000000001

>  <r_qp_QPlogBB>  (47) 
0.57899999999999996

>  <r_qp_QPlogHERG>  (47) 
-8.8480000000000008

>  <r_qp_QPlogKhsa>  (47) 
0.75800000000000001

>  <r_qp_QPlogKp>  (47) 
-3.6150000000000002

>  <r_qp_QPlogPC16>  (47) 
14.076000000000001

>  <r_qp_QPlogPo/w>  (47) 
4.7199999999999998

>  <r_qp_QPlogPoct>  (47) 
18.579000000000001

>  <r_qp_QPlogPw>  (47) 
8.9949999999999992

>  <r_qp_QPlogS>  (47) 
-4.4800000000000004

>  <r_qp_QPpolrz>  (47) 
45.085999999999999

>  <r_qp_SASA>  (47) 
786.96799999999996

>  <r_qp_SAamideO>  (47) 
0

>  <r_qp_SAfluorine>  (47) 
0

>  <r_qp_WPSA>  (47) 
0

>  <r_qp_accptHB>  (47) 
5.5

>  <r_qp_dip^2/V>  (47) 
0.0012025

>  <r_qp_dipole>  (47) 
1.274

>  <r_qp_donorHB>  (47) 
1

>  <r_qp_glob>  (47) 
0.75044699999999998

>  <r_qp_mol_MW>  (47) 
380.48599999999999

>  <r_qp_volume>  (47) 
1349.4860000000001

>  <r_sd_BIOSOLVEIT.INFINISEE\_FTREES\_SIMILARITY>  (47) 
0.92700000000000005

>  <r_sd_BIOSOLVEIT.LOGP>  (47) 
1.7753000000000001

>  <r_sd_BIOSOLVEIT.MOLECULAR\_WEIGHT>  (47) 
382.50099999999998

>  <r_sd_BIOSOLVEIT.TPSA>  (47) 
52.649999999999999

>  <i_epik_Tot_Q>  (47) 
2

>  <i_epik_Tot_abs_Q>  (47) 
2

>  <i_f3d_flags>  (47) 
0

>  <i_i_glide_confnum>  (47) 
7

>  <i_i_glide_lignum>  (47) 
112

>  <i_i_glide_posenum>  (47) 
17

>  <i_i_glide_rotatable_bonds>  (47) 
10

>  <i_lp_mmshare_version>  (47) 
65135

>  <i_m_ct_format>  (47) 
2

>  <i_m_source_file_index>  (47) 
734

>  <i_qp_#NandO>  (47) 
5

>  <i_qp_#acid>  (47) 
0

>  <i_qp_#amide>  (47) 
0

>  <i_qp_#amidine>  (47) 
0

>  <i_qp_#amine>  (47) 
2

>  <i_qp_#in34>  (47) 
0

>  <i_qp_#in56>  (47) 
17

>  <i_qp_#metab>  (47) 
9

>  <i_qp_#nonHatm>  (47) 
28

>  <i_qp_#noncon>  (47) 
0

>  <i_qp_#ringatoms>  (47) 
17

>  <i_qp_#rotor>  (47) 
10

>  <i_qp_#rtvFG>  (47) 
0

>  <i_qp_#stars>  (47) 
1

>  <i_qp_CNS>  (47) 
2

>  <i_qp_HumanOralAbsorption>  (47) 
3

>  <i_qp_RuleOfFive>  (47) 
0

>  <i_qp_RuleOfThree>  (47) 
1

>  <i_sd_BIOSOLVEIT.INFINISEE\_REAGENT1\_NAME>  (47) 
8349656

>  <i_sd_BIOSOLVEIT.INFINISEE\_REAGENT2\_NAME>  (47) 
24720270

>  <i_sd_BIOSOLVEIT.INFINISEE\_RESULT\_RANK>  (47) 
6668

>  <i_sd_version>  (47) 
0

>  <b_lp_Chiralities_Consistent>  (47) 
1

>  <b_sd_chiral_flag>  (47) 
0

>  <canonical_id>  (47) 
ATP-HTVS-DB6DF45B456E

>  <compound_code>  (47) 
23457

>  <title>  (47) 
m_270004bbb____8349656____24720270

>  <variant>  (47) 
23457-1

>  <source_file>  (47) 
运行/运行/ATP-VSW/ATP-VSW-DOCK_HTVS_1-001_lib/ATP-VSW-DOCK_HTVS_1-001_lib

>  <canonical_smiles>  (47) 
COc1ccccc1OCc1ccc(C[NH2+]Cc2cccc(C[NH+](C)C)c2)o1

>  <scaffold>  (47) 
c1ccc(C[NH2+]Cc2ccc(COc3ccccc3)o2)cc1

>  <molecular_formula>  (47) 
C23H30N2O3+2

>  <acquisition_id_v2>  (47) 
ATP-ACQ2-0047

>  <selection_arm_v2>  (47) 
local_structure_bridge

>  <priority_v2>  (47) 
P1

$$$$
ATP-ACQ2-0048
     RDKit          3D

 56 59  0  0  0  0  0  0  0  0999 V2000
  199.9314  183.4305  155.8695 S   0  0  0  0  0  0  0  0  0  0  0  0
  200.7518  184.6294  156.1974 O   0  0  0  0  0  0  0  0  0  0  0  0
  200.5240  182.1070  155.9998 O   0  0  0  0  0  0  0  0  0  0  0  0
  198.4446  183.5017  156.9137 C   0  0  0  0  0  0  0  0  0  0  0  0
  197.6284  182.3913  157.2687 C   0  0  0  0  0  0  0  0  0  0  0  0
  196.5764  182.5137  158.1147 N   0  0  0  0  0  0  0  0  0  0  0  0
  196.2581  183.7268  158.6375 C   0  0  0  0  0  0  0  0  0  0  0  0
  197.0217  184.8864  158.3408 C   0  0  0  0  0  0  0  0  0  0  0  0
  198.1256  184.7593  157.4739 C   0  0  0  0  0  0  0  0  0  0  0  0
  196.6777  186.1422  158.8983 C   0  0  0  0  0  0  0  0  0  0  0  0
  195.5703  186.2540  159.7588 C   0  0  0  0  0  0  0  0  0  0  0  0
  194.8035  185.1148  160.0560 C   0  0  0  0  0  0  0  0  0  0  0  0
  195.1515  183.8640  159.5045 C   0  0  0  0  0  0  0  0  0  0  0  0
  197.9171  181.0837  156.8481 N   0  0  0  0  0  0  0  0  0  0  0  0
  197.7884  180.5467  155.5524 C   0  0  0  0  0  0  0  0  0  0  0  0
  198.7154  179.5811  155.0661 C   0  0  0  0  0  0  0  0  0  0  0  0
  198.5834  179.1051  153.7455 C   0  0  0  0  0  0  0  0  0  0  0  0
  197.5558  179.5574  152.9044 C   0  0  0  0  0  0  0  0  0  0  0  0
  196.6571  180.5173  153.3766 C   0  0  0  0  0  0  0  0  0  0  0  0
  196.7606  180.9998  154.6891 C   0  0  0  0  0  0  0  0  0  0  0  0
  199.9115  179.1252  155.9128 C   0  0  1  0  0  0  0  0  0  0  0  0
  199.5440  177.8454  156.5464 N   0  0  0  0  0  0  0  0  0  0  0  0
  200.5162  177.3646  157.5529 C   0  0  0  0  0  0  0  0  0  0  0  0
  201.2364  176.2210  156.9278 C   0  0  0  0  0  0  0  0  0  0  0  0
  201.7989  175.3171  156.3792 C   0  0  0  0  0  0  0  0  0  0  0  0
  201.2458  179.0326  155.1410 C   0  0  0  0  0  0  0  0  0  0  0  0
  199.3186  183.6050  154.1919 C   0  0  0  0  0  0  0  0  0  0  0  0
  199.0654  184.9108  153.6760 C   0  0  0  0  0  0  0  0  0  0  0  0
  198.5447  185.0511  152.3508 C   0  0  0  0  0  0  0  0  0  0  0  0
  198.2457  183.8814  151.5888 C   0  0  0  0  0  0  0  0  0  0  0  0
  198.5059  182.5967  152.1451 C   0  0  0  0  0  0  0  0  0  0  0  0
  199.0756  182.4462  153.4246 C   0  0  0  0  0  0  0  0  0  0  0  0
  198.6558  177.9487  157.0444 H   0  0  0  0  0  0  0  0  0  0  0  0
  198.7247  185.6334  157.2584 H   0  0  0  0  0  0  0  0  0  0  0  0
  197.2599  187.0212  158.6700 H   0  0  0  0  0  0  0  0  0  0  0  0
  195.3056  187.2142  160.1774 H   0  0  0  0  0  0  0  0  0  0  0  0
  193.9393  185.2097  160.6942 H   0  0  0  0  0  0  0  0  0  0  0  0
  194.5509  182.9936  159.7282 H   0  0  0  0  0  0  0  0  0  0  0  0
  197.9536  180.4129  157.6016 H   0  0  0  0  0  0  0  0  0  0  0  0
  199.3293  178.4615  153.3196 H   0  0  0  0  0  0  0  0  0  0  0  0
  197.5479  179.2729  151.8727 H   0  0  0  0  0  0  0  0  0  0  0  0
  195.9185  180.9216  152.7094 H   0  0  0  0  0  0  0  0  0  0  0  0
  196.0654  181.7612  155.0129 H   0  0  0  0  0  0  0  0  0  0  0  0
  200.0589  179.8201  156.7338 H   0  0  0  0  0  0  0  0  0  0  0  0
  201.2363  178.1211  157.8720 H   0  0  0  0  0  0  0  0  0  0  0  0
  199.9779  177.0182  158.4393 H   0  0  0  0  0  0  0  0  0  0  0  0
  202.3324  174.5077  155.8967 H   0  0  0  0  0  0  0  0  0  0  0  0
  201.5266  179.9718  154.6730 H   0  0  0  0  0  0  0  0  0  0  0  0
  201.2429  178.2660  154.3715 H   0  0  0  0  0  0  0  0  0  0  0  0
  202.0746  178.7826  155.7968 H   0  0  0  0  0  0  0  0  0  0  0  0
  199.2935  185.8092  154.2832 H   0  0  0  0  0  0  0  0  0  0  0  0
  198.3939  186.0534  151.9122 H   0  0  0  0  0  0  0  0  0  0  0  0
  197.8083  183.9701  150.5822 H   0  0  0  0  0  0  0  0  0  0  0  0
  198.2680  181.7341  151.5443 H   0  0  0  0  0  0  0  0  0  0  0  0
  199.3523  181.4790  153.8138 H   0  0  0  0  0  0  0  0  0  0  0  0
  199.4285  177.1462  155.8214 H   0  0  0  0  0  0  0  0  0  0  0  0
  1  2  2  0
  1  3  2  0
  1  4  1  0
  1 27  1  0
  4  5  1  0
  4  9  2  0
  5  6  2  0
  5 14  1  0
  6  7  1  0
  7  8  1  0
  7 13  2  0
  8  9  1  0
  8 10  2  0
  9 34  1  0
 10 11  1  0
 10 35  1  0
 11 12  2  0
 11 36  1  0
 12 13  1  0
 12 37  1  0
 13 38  1  0
 14 15  1  0
 14 39  1  0
 15 16  1  0
 15 20  2  0
 16 17  2  0
 16 21  1  0
 17 18  1  0
 17 40  1  0
 18 19  2  0
 18 41  1  0
 19 20  1  0
 19 42  1  0
 20 43  1  0
 21 22  1  0
 21 26  1  0
 21 44  1  1
 22 23  1  0
 22 33  1  0
 22 56  1  0
 23 24  1  0
 23 45  1  0
 23 46  1  0
 24 25  3  0
 25 47  1  0
 26 48  1  0
 26 49  1  0
 26 50  1  0
 27 28  2  0
 27 32  1  0
 28 29  1  0
 28 51  1  0
 29 30  2  0
 29 52  1  0
 30 31  1  0
 30 53  1  0
 31 32  2  0
 31 54  1  0
 32 55  1  0
M  CHG  1  22   1
M  END
>  <s_epik_cmdline>  (48) 
J2VwaWtfcHl0aG9uJywgJy1waCcsICc3LjAwMDAwMCcsICctcGh0JywgJzIuMDAwMDAwJywgJy1tcycsICcxNicsICctdG4nLCAnOCcsICctbWEnLCAnMjAwJywgJy1pbWFlJywgJzxpbmZpbGUubWFlPicsICctb21hZScsICc8b3V0ZmlsZS5tYWU+Jw==

>  <s_epik_input>  (48) 
W2NIXTFbY0hdW2NIXVtjSF1bY0hdYzFTKD1PKSg9TyljKFtjSF1jKGMyMylbY0hdW2NIXVtjSF1bY0hdMyljKG4yKVtOSF1jNGMoW2NIXVtjSF1bY0hdW2NIXTQpW0NASF0oW0NIM10pW05IXVtDSDJdQyNbQ0hd

>  <s_i_glide_gridfile>  (48) 
ATP-Grid

>  <s_lp_Force_Field>  (48) 
OPLS_2005

>  <s_lp_Variant>  (48) 
rxn102b____EMOL316258031____EMOL42620813-4

>  <s_lp_label>  (48) 
3117_sdstereoexpander_2_neutralizer_1_epik_2_stereoizer_1

>  <s_m_source_file>  (48) 
ATP-VSW-LIGPREP-001-in.maegz

>  <s_sd_BIOSOLVEIT.INFINISEE\_QUERY\_NAME>  (48) 
Ref-Lig

>  <s_sd_BIOSOLVEIT.INFINISEE\_QUERY\_SMILES>  (48) 
S(c1nc2c(cc1C[NH2+]Cc3ccc(cc3)C[NH+](C)C)cccc2)Cc4ccccc4

>  <s_sd_BIOSOLVEIT.INFINISEE\_REACTION\_NAME>  (48) 
rxn102b

>  <s_sd_BIOSOLVEIT.INFINISEE\_REAGENT1\_NAME>  (48) 
EMOL316258031

>  <s_sd_BIOSOLVEIT.INFINISEE\_REAGENT1\_SMILES>  (48) 
Brc1c(cccc1)C(NCC#C)C

>  <s_sd_BIOSOLVEIT.INFINISEE\_REAGENT2\_NAME>  (48) 
EMOL42620813

>  <s_sd_BIOSOLVEIT.INFINISEE\_REAGENT2\_SMILES>  (48) 
S(=O)(=O)(c1c(nc2c(c1)cccc2)N)c3ccccc3

>  <s_sd_BIOSOLVEIT.INFINISEE\_SPACE>  (48) 
eXplore_7tr_2022-12

>  <s_vsw_compound_code>  (48) 
99713

>  <s_vsw_variant>  (48) 
99713-4

>  <r_epik_Charging_Adjusted_Penalty>  (48) 
0.86444831279192502

>  <r_epik_Ionization_Penalty>  (48) 
0.43219999999999997

>  <r_epik_Ionization_Penalty_Charging>  (48) 
0.43219999999999997

>  <r_epik_Ionization_Penalty_Neutral>  (48) 
0

>  <r_epik_State_Penalty>  (48) 
0.43219999999999997

>  <r_i_docking_score>  (48) 
-3.9745006717406399

>  <r_i_glide_ecoul>  (48) 
-7.3640851974487296

>  <r_i_glide_eff_state_penalty>  (48) 
0.43219999999999997

>  <r_i_glide_einternal>  (48) 
14.674421310424799

>  <r_i_glide_emodel>  (48) 
-51.720872696711503

>  <r_i_glide_energy>  (48) 
-43.022822380065897

>  <r_i_glide_erotb>  (48) 
0.81629556516789503

>  <r_i_glide_esite>  (48) 
-0.17980423694675801

>  <r_i_glide_evdw>  (48) 
-35.658737182617202

>  <r_i_glide_gscore>  (48) 
-4.4067006717406398

>  <r_i_glide_hbond>  (48) 
-0.20000000000000001

>  <r_i_glide_ligand_efficiency>  (48) 
-0.124203145991895

>  <r_i_glide_ligand_efficiency_ln>  (48) 
-0.88999904119920803

>  <r_i_glide_ligand_efficiency_sa>  (48) 
-0.39432040875505098

>  <r_i_glide_lipo>  (48) 
-1.56396277030452

>  <r_i_glide_metal>  (48) 
-0

>  <r_i_glide_rewards>  (48) 
-0.39167959090908999

>  <r_lp_Energy>  (48) 
22.121054000000001

>  <r_qp_ACxDN^.5/SA>  (48) 
0.010756999999999999

>  <r_qp_CIQPlogS>  (48) 
-6.0369999999999999

>  <r_qp_EA(eV)>  (48) 
1.282

>  <r_qp_FISA>  (48) 
77.915999999999997

>  <r_qp_FOSA>  (48) 
108.929

>  <r_qp_IP(eV)>  (48) 
8.2919999999999998

>  <r_qp_Jm>  (48) 
0.145459831482362

>  <r_qp_PISA>  (48) 
495.20400000000001

>  <r_qp_PSA>  (48) 
62.527000000000001

>  <r_qp_PercentHumanOralAbsorption>  (48) 
100

>  <r_qp_QPPCaco>  (48) 
450.73500000000001

>  <r_qp_QPPMDCK>  (48) 
234.476

>  <r_qp_QPlogBB>  (48) 
-0.24299999999999999

>  <r_qp_QPlogHERG>  (48) 
-7.1120000000000001

>  <r_qp_QPlogKhsa>  (48) 
0.65500000000000003

>  <r_qp_QPlogKp>  (48) 
-2.5059999999999998

>  <r_qp_QPlogPC16>  (48) 
14.712999999999999

>  <r_qp_QPlogPo/w>  (48) 
4.4409999999999998

>  <r_qp_QPlogPoct>  (48) 
21.045000000000002

>  <r_qp_QPlogPw>  (48) 
11.603999999999999

>  <r_qp_QPlogS>  (48) 
-3.9769999999999999

>  <r_qp_QPpolrz>  (48) 
45.718000000000004

>  <r_qp_SASA>  (48) 
683.13300000000004

>  <r_qp_SAamideO>  (48) 
0

>  <r_qp_SAfluorine>  (48) 
0

>  <r_qp_WPSA>  (48) 
1.0840000000000001

>  <r_qp_accptHB>  (48) 
6

>  <r_qp_dip^2/V>  (48) 
0.0201187

>  <r_qp_dipole>  (48) 
5.1269999999999998

>  <r_qp_donorHB>  (48) 
1.5

>  <r_qp_glob>  (48) 
0.84598930000000006

>  <r_qp_mol_MW>  (48) 
441.54700000000003

>  <r_qp_volume>  (48) 
1306.346

>  <r_sd_BIOSOLVEIT.INFINISEE\_FTREES\_SIMILARITY>  (48) 
0.90100000000000002

>  <r_sd_BIOSOLVEIT.LOGP>  (48) 
4.7194000000000003

>  <r_sd_BIOSOLVEIT.MOLECULAR\_WEIGHT>  (48) 
442.56

>  <r_sd_BIOSOLVEIT.TPSA>  (48) 
75.670000000000002

>  <i_epik_Tot_Q>  (48) 
1

>  <i_epik_Tot_abs_Q>  (48) 
1

>  <i_f3d_flags>  (48) 
0

>  <i_i_glide_confnum>  (48) 
7

>  <i_i_glide_lignum>  (48) 
68

>  <i_i_glide_posenum>  (48) 
8

>  <i_i_glide_rotatable_bonds>  (48) 
8

>  <i_lp_mmshare_version>  (48) 
65135

>  <i_m_ct_format>  (48) 
2

>  <i_m_source_file_index>  (48) 
3117

>  <i_qp_#NandO>  (48) 
5

>  <i_qp_#acid>  (48) 
0

>  <i_qp_#amide>  (48) 
0

>  <i_qp_#amidine>  (48) 
0

>  <i_qp_#amine>  (48) 
1

>  <i_qp_#in34>  (48) 
0

>  <i_qp_#in56>  (48) 
22

>  <i_qp_#metab>  (48) 
5

>  <i_qp_#nonHatm>  (48) 
32

>  <i_qp_#noncon>  (48) 
0

>  <i_qp_#ringatoms>  (48) 
22

>  <i_qp_#rotor>  (48) 
8

>  <i_qp_#rtvFG>  (48) 
0

>  <i_qp_#stars>  (48) 
1

>  <i_qp_CNS>  (48) 
1

>  <i_qp_HumanOralAbsorption>  (48) 
3

>  <i_qp_RuleOfFive>  (48) 
0

>  <i_qp_RuleOfThree>  (48) 
0

>  <i_sd_BIOSOLVEIT.INFINISEE\_RESULT\_RANK>  (48) 
99050

>  <i_sd_version>  (48) 
0

>  <b_lp_Chiralities_Consistent>  (48) 
1

>  <b_sd_chiral_flag>  (48) 
0

>  <canonical_id>  (48) 
ATP-HTVS-7A394D6CE484

>  <compound_code>  (48) 
99713

>  <title>  (48) 
rxn102b____EMOL316258031____EMOL42620813

>  <variant>  (48) 
99713-4

>  <source_file>  (48) 
运行/运行/ATP-VSW/ATP-VSW-DOCK_HTVS_1-002_lib.maegz

>  <canonical_smiles>  (48) 
C#CC[NH2+][C@@H](C)c1ccccc1Nc1nc2ccccc2cc1S(=O)(=O)c1ccccc1

>  <scaffold>  (48) 
O=S(=O)(c1ccccc1)c1cc2ccccc2nc1Nc1ccccc1

>  <molecular_formula>  (48) 
C26H24N3O2S+

>  <acquisition_id_v2>  (48) 
ATP-ACQ2-0048

>  <selection_arm_v2>  (48) 
scaffold_score_exploration

>  <priority_v2>  (48) 
P1

$$$$
ATP-ACQ2-0049
     RDKit          3D

 55 58  0  0  0  0  0  0  0  0999 V2000
  200.2948  178.8743  152.8432 S   0  0  0  0  0  0  0  0  0  0  0  0
  200.7305  177.5614  153.9081 C   0  0  0  0  0  0  0  0  0  0  0  0
  199.9988  177.6249  155.1339 C   0  0  0  0  0  0  0  0  0  0  0  0
  200.2626  176.6296  156.0948 C   0  0  0  0  0  0  0  0  0  0  0  0
  201.1966  175.6083  155.8493 C   0  0  0  0  0  0  0  0  0  0  0  0
  201.8952  175.5660  154.6297 C   0  0  0  0  0  0  0  0  0  0  0  0
  201.6665  176.5460  153.6550 C   0  0  0  0  0  0  0  0  0  0  0  0
  199.0829  178.7276  155.1621 C   0  0  0  0  0  0  0  0  0  0  0  0
  199.1299  179.4643  153.9975 C   0  0  0  0  0  0  0  0  0  0  0  0
  198.3562  180.6993  153.6708 C   0  0  1  0  0  0  0  0  0  0  0  0
  197.2598  180.4534  152.7505 N   0  0  0  0  0  0  0  0  0  0  0  0
  197.6008  180.7725  151.3700 C   0  0  1  0  0  0  0  0  0  0  0  0
  196.6791  180.0594  150.4796 C   0  0  0  0  0  0  0  0  0  0  0  0
  195.9497  179.5011  149.7786 N   0  0  0  0  0  0  0  0  0  0  0  0
  197.6125  182.2694  151.0427 C   0  0  0  0  0  0  0  0  0  0  0  0
  197.7094  182.6841  149.6956 C   0  0  0  0  0  0  0  0  0  0  0  0
  197.7005  184.0577  149.3732 C   0  0  0  0  0  0  0  0  0  0  0  0
  197.6211  185.0345  150.3867 C   0  0  0  0  0  0  0  0  0  0  0  0
  197.5450  184.6305  151.7290 C   0  0  0  0  0  0  0  0  0  0  0  0
  197.5216  183.2689  152.0465 C   0  0  0  0  0  0  0  0  0  0  0  0
  197.7917  181.2942  154.8631 C   0  0  0  0  0  0  0  0  0  0  0  0
  197.2725  181.7345  155.8682 C   0  0  0  0  0  0  0  0  0  0  0  0
  196.8674  182.2833  157.1552 C   0  0  0  0  0  0  0  0  0  0  0  0
  195.4949  181.8336  157.4337 N   0  0  0  0  0  0  0  0  0  0  0  0
  195.0167  182.1415  158.8067 C   0  0  0  0  0  0  0  0  0  0  0  0
  195.4011  183.5109  159.3634 C   0  0  0  0  0  0  0  0  0  0  0  0
  196.7534  183.9075  159.5110 C   0  0  0  0  0  0  0  0  0  0  0  0
  197.0786  185.2156  159.8502 C   0  0  0  0  0  0  0  0  0  0  0  0
  196.0724  186.1612  160.1979 C   0  0  0  0  0  0  0  0  0  0  0  0
  194.7172  185.7417  160.1689 C   0  0  0  0  0  0  0  0  0  0  0  0
  194.3705  184.4284  159.7326 C   0  0  0  0  0  0  0  0  0  0  0  0
  196.9202  179.5050  152.8521 H   0  0  0  0  0  0  0  0  0  0  0  0
  194.8612  182.2237  156.7301 H   0  0  0  0  0  0  0  0  0  0  0  0
  199.7097  176.6576  157.0247 H   0  0  0  0  0  0  0  0  0  0  0  0
  201.3650  174.8511  156.5985 H   0  0  0  0  0  0  0  0  0  0  0  0
  202.6082  174.7796  154.4460 H   0  0  0  0  0  0  0  0  0  0  0  0
  202.1983  176.5324  152.7153 H   0  0  0  0  0  0  0  0  0  0  0  0
  198.4499  178.9162  156.0277 H   0  0  0  0  0  0  0  0  0  0  0  0
  199.0465  181.4579  153.2930 H   0  0  0  0  0  0  0  0  0  0  0  0
  198.5835  180.3592  151.1618 H   0  0  0  0  0  0  0  0  0  0  0  0
  197.7768  181.9550  148.8974 H   0  0  0  0  0  0  0  0  0  0  0  0
  197.7512  184.3739  148.3452 H   0  0  0  0  0  0  0  0  0  0  0  0
  197.6122  186.0914  150.1581 H   0  0  0  0  0  0  0  0  0  0  0  0
  197.4867  185.3437  152.5400 H   0  0  0  0  0  0  0  0  0  0  0  0
  197.4243  183.0450  153.0907 H   0  0  0  0  0  0  0  0  0  0  0  0
  197.5720  181.8926  157.8958 H   0  0  0  0  0  0  0  0  0  0  0  0
  196.9588  183.3643  157.0671 H   0  0  0  0  0  0  0  0  0  0  0  0
  193.9327  182.0164  158.7727 H   0  0  0  0  0  0  0  0  0  0  0  0
  195.3675  181.3731  159.4911 H   0  0  0  0  0  0  0  0  0  0  0  0
  197.5780  183.2342  159.3571 H   0  0  0  0  0  0  0  0  0  0  0  0
  198.1037  185.5342  159.8261 H   0  0  0  0  0  0  0  0  0  0  0  0
  196.3448  187.1737  160.5145 H   0  0  0  0  0  0  0  0  0  0  0  0
  193.9214  186.4400  160.4856 H   0  0  0  0  0  0  0  0  0  0  0  0
  193.3130  184.1615  159.6628 H   0  0  0  0  0  0  0  0  0  0  0  0
  195.4980  180.8162  157.3351 H   0  0  0  0  0  0  0  0  0  0  0  0
  1  2  1  0
  1  9  1  0
  2  3  1  0
  2  7  2  0
  3  4  2  0
  3  8  1  0
  4  5  1  0
  4 34  1  0
  5  6  2  0
  5 35  1  0
  6  7  1  0
  6 36  1  0
  7 37  1  0
  8  9  2  0
  8 38  1  0
  9 10  1  0
 10 11  1  0
 10 21  1  0
 10 39  1  6
 11 12  1  0
 11 32  1  0
 12 13  1  0
 12 15  1  0
 12 40  1  6
 13 14  3  0
 15 16  2  0
 15 20  1  0
 16 17  1  0
 16 41  1  0
 17 18  2  0
 17 42  1  0
 18 19  1  0
 18 43  1  0
 19 20  2  0
 19 44  1  0
 20 45  1  0
 21 22  3  0
 22 23  1  0
 23 24  1  0
 23 46  1  0
 23 47  1  0
 24 25  1  0
 24 33  1  0
 24 55  1  0
 25 26  1  0
 25 48  1  0
 25 49  1  0
 26 27  2  0
 26 31  1  0
 27 28  1  0
 27 50  1  0
 28 29  2  0
 28 51  1  0
 29 30  1  0
 29 52  1  0
 30 31  2  0
 30 53  1  0
 31 54  1  0
M  CHG  1  24   1
M  END
>  <s_epik_cmdline>  (49) 
J2VwaWtfcHl0aG9uJywgJy1waCcsICc3LjAwMDAwMCcsICctcGh0JywgJzIuMDAwMDAwJywgJy1tcycsICcxNicsICctdG4nLCAnOCcsICctbWEnLCAnMjAwJywgJy1pbWFlJywgJzxpbmZpbGUubWFlPicsICctb21hZScsICc8b3V0ZmlsZS5tYWU+Jw==

>  <s_epik_input>  (49) 
W2NIXTFbY0hdW2NIXVtjSF1bY0hdYzFbQ0BIXShDI04pW05IXVtDQEhdKGMoczIpW2NIXWMoYzIzKVtjSF1bY0hdW2NIXVtjSF0zKUMjQ1tDSDJdW05IXVtDSDJdYzRbY0hdW2NIXVtjSF1bY0hdW2NIXTQ=

>  <s_i_glide_gridfile>  (49) 
ATP-Grid

>  <s_lp_Force_Field>  (49) 
OPLS_2005

>  <s_lp_Variant>  (49) 
rxn403____EMOL44390368____EMOL720244____EMOL1197208-6

>  <s_lp_label>  (49) 
2478_sdstereoexpander_2_neutralizer_1_epik_2_stereoizer_1

>  <s_m_source_file>  (49) 
ATP-VSW-LIGPREP-001-in.maegz

>  <s_sd_BIOSOLVEIT.INFINISEE\_QUERY\_NAME>  (49) 
Ref-Lig

>  <s_sd_BIOSOLVEIT.INFINISEE\_QUERY\_SMILES>  (49) 
S(c1nc2c(cc1C[NH2+]Cc3ccc(cc3)C[NH+](C)C)cccc2)Cc4ccccc4

>  <s_sd_BIOSOLVEIT.INFINISEE\_REACTION\_NAME>  (49) 
rxn403

>  <s_sd_BIOSOLVEIT.INFINISEE\_REAGENT1\_NAME>  (49) 
EMOL44390368

>  <s_sd_BIOSOLVEIT.INFINISEE\_REAGENT1\_SMILES>  (49) 
N#CC(N)c1ccccc1

>  <s_sd_BIOSOLVEIT.INFINISEE\_REAGENT2\_NAME>  (49) 
EMOL720244

>  <s_sd_BIOSOLVEIT.INFINISEE\_REAGENT2\_SMILES>  (49) 
S1c2c(cccc2)C=C1C=O

>  <s_sd_BIOSOLVEIT.INFINISEE\_REAGENT3\_NAME>  (49) 
EMOL1197208

>  <s_sd_BIOSOLVEIT.INFINISEE\_REAGENT3\_SMILES>  (49) 
N(CC#C)Cc1ccccc1

>  <s_sd_BIOSOLVEIT.INFINISEE\_SPACE>  (49) 
eXplore_7tr_2022-12

>  <s_vsw_compound_code>  (49) 
79265

>  <s_vsw_variant>  (49) 
79265-6

>  <r_epik_Charging_Adjusted_Penalty>  (49) 
0.99449727091298001

>  <r_epik_Ionization_Penalty>  (49) 
0.5

>  <r_epik_Ionization_Penalty_Charging>  (49) 
0.49719999999999998

>  <r_epik_Ionization_Penalty_Neutral>  (49) 
0.0027000000000000001

>  <r_epik_State_Penalty>  (49) 
0.49719999999999998

>  <r_i_docking_score>  (49) 
-6.1049705178208802

>  <r_i_glide_ecoul>  (49) 
-11.668799400329601

>  <r_i_glide_eff_state_penalty>  (49) 
0.49719999999999998

>  <r_i_glide_einternal>  (49) 
8.8885316848754901

>  <r_i_glide_emodel>  (49) 
-76.755817942427996

>  <r_i_glide_energy>  (49) 
-50.353110313415499

>  <r_i_glide_erotb>  (49) 
0.66570597144055599

>  <r_i_glide_esite>  (49) 
-0.10000000000000001

>  <r_i_glide_evdw>  (49) 
-38.684310913085902

>  <r_i_glide_gscore>  (49) 
-6.6021705178208796

>  <r_i_glide_hbond>  (49) 
-0.40000000000000002

>  <r_i_glide_ligand_efficiency>  (49) 
-0.196934532832932

>  <r_i_glide_ligand_efficiency_ln>  (49) 
-1.37685794664573

>  <r_i_glide_ligand_efficiency_sa>  (49) 
-0.61864633052096796

>  <r_i_glide_lipo>  (49) 
-2.1253093673666599

>  <r_i_glide_metal>  (49) 
-0

>  <r_i_glide_rewards>  (49) 
-0.95803166619103697

>  <r_lp_Energy>  (49) 
13.903465000000001

>  <r_qp_ACxDN^.5/SA>  (49) 
0.0086630000000000006

>  <r_qp_CIQPlogS>  (49) 
-6.0590000000000002

>  <r_qp_EA(eV)>  (49) 
0.80800000000000005

>  <r_qp_FISA>  (49) 
77.349999999999994

>  <r_qp_FOSA>  (49) 
106.485

>  <r_qp_IP(eV)>  (49) 
8.8640000000000008

>  <r_qp_Jm>  (49) 
0.000252097315531427

>  <r_qp_PISA>  (49) 
515.81399999999996

>  <r_qp_PSA>  (49) 
48.353000000000002

>  <r_qp_PercentHumanOralAbsorption>  (49) 
92.144999999999996

>  <r_qp_QPPCaco>  (49) 
113.812

>  <r_qp_QPPMDCK>  (49) 
89.850999999999999

>  <r_qp_QPlogBB>  (49) 
0.047

>  <r_qp_QPlogHERG>  (49) 
-8.6069999999999993

>  <r_qp_QPlogKhsa>  (49) 
0.91800000000000004

>  <r_qp_QPlogKp>  (49) 
-4.2930000000000001

>  <r_qp_QPlogPC16>  (49) 
15.682

>  <r_qp_QPlogPo/w>  (49) 
4.8499999999999996

>  <r_qp_QPlogPoct>  (49) 
21.155000000000001

>  <r_qp_QPlogPw>  (49) 
10.69

>  <r_qp_QPlogS>  (49) 
-4.9299999999999997

>  <r_qp_QPpolrz>  (49) 
46.417000000000002

>  <r_qp_SASA>  (49) 
734.61800000000005

>  <r_qp_SAamideO>  (49) 
0

>  <r_qp_SAfluorine>  (49) 
0

>  <r_qp_WPSA>  (49) 
34.969000000000001

>  <r_qp_accptHB>  (49) 
4.5

>  <r_qp_dip^2/V>  (49) 
0.018316200000000001

>  <r_qp_dipole>  (49) 
4.9740000000000002

>  <r_qp_donorHB>  (49) 
2

>  <r_qp_glob>  (49) 
0.80451700000000004

>  <r_qp_mol_MW>  (49) 
421.55900000000003

>  <r_qp_volume>  (49) 
1350.9749999999999

>  <r_sd_BIOSOLVEIT.INFINISEE\_FTREES\_SIMILARITY>  (49) 
0.91500000000000004

>  <r_sd_BIOSOLVEIT.LOGP>  (49) 
3.5376799999999999

>  <r_sd_BIOSOLVEIT.MOLECULAR\_WEIGHT>  (49) 
423.58100000000002

>  <r_sd_BIOSOLVEIT.TPSA>  (49) 
57.009999999999998

>  <i_epik_Tot_Q>  (49) 
1

>  <i_epik_Tot_abs_Q>  (49) 
1

>  <i_f3d_flags>  (49) 
0

>  <i_i_glide_confnum>  (49) 
7

>  <i_i_glide_lignum>  (49) 
972

>  <i_i_glide_posenum>  (49) 
3

>  <i_i_glide_rotatable_bonds>  (49) 
9

>  <i_lp_mmshare_version>  (49) 
65135

>  <i_m_ct_format>  (49) 
2

>  <i_m_source_file_index>  (49) 
2478

>  <i_qp_#NandO>  (49) 
3

>  <i_qp_#acid>  (49) 
0

>  <i_qp_#amide>  (49) 
0

>  <i_qp_#amidine>  (49) 
0

>  <i_qp_#amine>  (49) 
2

>  <i_qp_#in34>  (49) 
0

>  <i_qp_#in56>  (49) 
21

>  <i_qp_#metab>  (49) 
8

>  <i_qp_#nonHatm>  (49) 
31

>  <i_qp_#noncon>  (49) 
0

>  <i_qp_#ringatoms>  (49) 
21

>  <i_qp_#rotor>  (49) 
10

>  <i_qp_#rtvFG>  (49) 
0

>  <i_qp_#stars>  (49) 
1

>  <i_qp_CNS>  (49) 
1

>  <i_qp_HumanOralAbsorption>  (49) 
3

>  <i_qp_RuleOfFive>  (49) 
0

>  <i_qp_RuleOfThree>  (49) 
1

>  <i_sd_BIOSOLVEIT.INFINISEE\_RESULT\_RANK>  (49) 
28557

>  <i_sd_version>  (49) 
0

>  <b_lp_Chiralities_Consistent>  (49) 
1

>  <b_sd_chiral_flag>  (49) 
0

>  <canonical_id>  (49) 
ATP-HTVS-3FEB13A0176D

>  <compound_code>  (49) 
79265

>  <title>  (49) 
rxn403____EMOL44390368____EMOL720244____EMOL1197208

>  <variant>  (49) 
79265-6

>  <source_file>  (49) 
运行/运行/ATP-VSW/ATP-VSW-DOCK_HTVS_1-001_lib/ATP-VSW-DOCK_HTVS_1-001_lib

>  <canonical_smiles>  (49) 
N#C[C@H](N[C@@H](C#CC[NH2+]Cc1ccccc1)c1cc2ccccc2s1)c1ccccc1

>  <scaffold>  (49) 
C(#CC(NCc1ccccc1)c1cc2ccccc2s1)C[NH2+]Cc1ccccc1

>  <molecular_formula>  (49) 
C27H24N3S+

>  <acquisition_id_v2>  (49) 
ATP-ACQ2-0049

>  <selection_arm_v2>  (49) 
exploitation

>  <priority_v2>  (49) 
P1

$$$$
ATP-ACQ2-0050
     RDKit          3D

 71 75  0  0  0  0  0  0  0  0999 V2000
  199.0952  185.7507  158.7494 O   0  0  0  0  0  0  0  0  0  0  0  0
  197.9010  185.1166  159.0482 C   0  0  0  0  0  0  0  0  0  0  0  0
  196.8947  185.8543  159.7230 C   0  0  0  0  0  0  0  0  0  0  0  0
  195.6327  185.2595  159.9940 C   0  0  0  0  0  0  0  0  0  0  0  0
  195.3616  183.9456  159.5724 C   0  0  0  0  0  0  0  0  0  0  0  0
  196.3611  183.2098  158.9069 C   0  0  0  0  0  0  0  0  0  0  0  0
  197.6345  183.7798  158.6999 C   0  0  0  0  0  0  0  0  0  0  0  0
  196.0720  181.8136  158.3967 C   0  0  0  0  0  0  0  0  0  0  0  0
  195.9499  181.7512  156.9252 N   0  0  0  0  0  0  0  0  0  0  0  0
  197.1773  182.0697  156.1722 C   0  0  0  0  0  0  0  0  0  0  0  0
  197.1320  181.5498  154.7487 C   0  0  0  0  0  0  0  0  0  0  0  0
  197.4928  180.2138  154.4171 C   0  0  0  0  0  0  0  0  0  0  0  0
  197.3824  179.8100  153.0648 C   0  0  0  0  0  0  0  0  0  0  0  0
  197.0200  180.7233  152.0630 C   0  0  0  0  0  0  0  0  0  0  0  0
  196.6914  182.0548  152.3945 C   0  0  0  0  0  0  0  0  0  0  0  0
  196.7441  182.4568  153.7369 C   0  0  0  0  0  0  0  0  0  0  0  0
  197.9752  179.1992  155.4670 C   0  0  0  0  0  0  0  0  0  0  0  0
  199.4088  178.8752  155.4060 N   0  0  0  0  0  0  0  0  0  0  0  0
  199.7703  177.9306  156.4791 C   0  0  0  0  0  0  0  0  0  0  0  0
  201.2619  177.5275  156.4307 C   0  0  0  0  0  0  0  0  0  0  0  0
  201.6189  176.9346  155.1364 N   0  0  0  0  0  0  0  0  0  0  0  0
  201.2772  177.8828  154.0822 C   0  0  0  0  0  0  0  0  0  0  0  0
  199.8021  178.2826  154.1231 C   0  0  0  0  0  0  0  0  0  0  0  0
  203.0287  176.5821  155.0701 C   0  0  0  0  0  0  0  0  0  0  0  0
  194.6387  185.9901  160.6724 C   0  0  0  0  0  0  0  0  0  0  0  0
  194.9015  187.3029  161.0992 C   0  0  0  0  0  0  0  0  0  0  0  0
  196.1456  187.9059  160.8184 C   0  0  0  0  0  0  0  0  0  0  0  0
  197.1358  187.1837  160.1298 C   0  0  0  0  0  0  0  0  0  0  0  0
  200.0853  185.0532  157.9940 C   0  0  0  0  0  0  0  0  0  0  0  0
  200.8647  184.0456  158.8298 C   0  0  0  0  0  0  0  0  0  0  0  0
  201.2176  182.7887  158.2916 C   0  0  0  0  0  0  0  0  0  0  0  0
  201.9561  181.8658  159.0601 C   0  0  0  0  0  0  0  0  0  0  0  0
  202.3479  182.1940  160.3729 C   0  0  0  0  0  0  0  0  0  0  0  0
  202.0070  183.4489  160.9132 C   0  0  0  0  0  0  0  0  0  0  0  0
  201.2665  184.3701  160.1446 C   0  0  0  0  0  0  0  0  0  0  0  0
  195.7188  180.7764  156.7492 H   0  0  0  0  0  0  0  0  0  0  0  0
  194.3924  183.4988  159.7560 H   0  0  0  0  0  0  0  0  0  0  0  0
  198.3938  183.1715  158.2285 H   0  0  0  0  0  0  0  0  0  0  0  0
  196.8577  181.1301  158.7234 H   0  0  0  0  0  0  0  0  0  0  0  0
  195.1456  181.4349  158.8320 H   0  0  0  0  0  0  0  0  0  0  0  0
  197.3113  183.1548  156.1396 H   0  0  0  0  0  0  0  0  0  0  0  0
  198.0621  181.6691  156.6667 H   0  0  0  0  0  0  0  0  0  0  0  0
  197.6153  178.7873  152.7913 H   0  0  0  0  0  0  0  0  0  0  0  0
  196.9862  180.4117  151.0276 H   0  0  0  0  0  0  0  0  0  0  0  0
  196.3943  182.7621  151.6290 H   0  0  0  0  0  0  0  0  0  0  0  0
  196.4662  183.4694  153.9900 H   0  0  0  0  0  0  0  0  0  0  0  0
  197.7457  179.5508  156.4751 H   0  0  0  0  0  0  0  0  0  0  0  0
  197.3831  178.2892  155.3645 H   0  0  0  0  0  0  0  0  0  0  0  0
  199.5533  178.3681  157.4552 H   0  0  0  0  0  0  0  0  0  0  0  0
  199.1536  177.0340  156.4053 H   0  0  0  0  0  0  0  0  0  0  0  0
  201.8794  178.4115  156.6155 H   0  0  0  0  0  0  0  0  0  0  0  0
  201.4803  176.8168  157.2316 H   0  0  0  0  0  0  0  0  0  0  0  0
  201.8964  178.7752  154.1726 H   0  0  0  0  0  0  0  0  0  0  0  0
  201.4977  177.4365  153.1136 H   0  0  0  0  0  0  0  0  0  0  0  0
  199.1927  177.4028  153.9252 H   0  0  0  0  0  0  0  0  0  0  0  0
  199.6372  178.9922  153.3115 H   0  0  0  0  0  0  0  0  0  0  0  0
  203.2756  176.1704  154.0908 H   0  0  0  0  0  0  0  0  0  0  0  0
  203.2729  175.8348  155.8261 H   0  0  0  0  0  0  0  0  0  0  0  0
  203.6544  177.4625  155.2294 H   0  0  0  0  0  0  0  0  0  0  0  0
  193.6741  185.5416  160.8671 H   0  0  0  0  0  0  0  0  0  0  0  0
  194.1369  187.8648  161.6171 H   0  0  0  0  0  0  0  0  0  0  0  0
  196.3397  188.9217  161.1317 H   0  0  0  0  0  0  0  0  0  0  0  0
  198.0892  187.6604  159.9292 H   0  0  0  0  0  0  0  0  0  0  0  0
  199.6535  184.5760  157.1097 H   0  0  0  0  0  0  0  0  0  0  0  0
  200.7998  185.7870  157.6144 H   0  0  0  0  0  0  0  0  0  0  0  0
  200.9270  182.5275  157.2852 H   0  0  0  0  0  0  0  0  0  0  0  0
  202.2199  180.9054  158.6423 H   0  0  0  0  0  0  0  0  0  0  0  0
  202.9082  181.4834  160.9651 H   0  0  0  0  0  0  0  0  0  0  0  0
  202.3104  183.7019  161.9193 H   0  0  0  0  0  0  0  0  0  0  0  0
  201.0088  185.3300  160.5679 H   0  0  0  0  0  0  0  0  0  0  0  0
  195.1681  182.3044  156.5800 H   0  0  0  0  0  0  0  0  0  0  0  0
  1  2  1  0
  1 29  1  0
  2  3  1  0
  2  7  2  0
  3  4  1  0
  3 28  2  0
  4  5  1  0
  4 25  2  0
  5  6  2  0
  5 37  1  0
  6  7  1  0
  6  8  1  0
  7 38  1  0
  8  9  1  0
  8 39  1  0
  8 40  1  0
  9 10  1  0
  9 36  1  0
  9 71  1  0
 10 11  1  0
 10 41  1  0
 10 42  1  0
 11 12  1  0
 11 16  2  0
 12 13  2  0
 12 17  1  0
 13 14  1  0
 13 43  1  0
 14 15  2  0
 14 44  1  0
 15 16  1  0
 15 45  1  0
 16 46  1  0
 17 18  1  0
 17 47  1  0
 17 48  1  0
 18 19  1  0
 18 23  1  0
 19 20  1  0
 19 49  1  0
 19 50  1  0
 20 21  1  0
 20 51  1  0
 20 52  1  0
 21 22  1  0
 21 24  1  0
 22 23  1  0
 22 53  1  0
 22 54  1  0
 23 55  1  0
 23 56  1  0
 24 57  1  0
 24 58  1  0
 24 59  1  0
 25 26  1  0
 25 60  1  0
 26 27  2  0
 26 61  1  0
 27 28  1  0
 27 62  1  0
 28 63  1  0
 29 30  1  0
 29 64  1  0
 29 65  1  0
 30 31  2  0
 30 35  1  0
 31 32  1  0
 31 66  1  0
 32 33  2  0
 32 67  1  0
 33 34  1  0
 33 68  1  0
 34 35  2  0
 34 69  1  0
 35 70  1  0
M  CHG  1   9   1
M  END
>  <s_epik_cmdline>  (50) 
J2VwaWtfcHl0aG9uJywgJy1waCcsICc3LjAwMDAwMCcsICctcGh0JywgJzIuMDAwMDAwJywgJy1tcycsICcxNicsICctdG4nLCAnOCcsICctbWEnLCAnMjAwJywgJy1pbWFlJywgJzxpbmZpbGUubWFlPicsICctb21hZScsICc8b3V0ZmlsZS5tYWU+Jw==

>  <s_epik_input>  (50) 
W2NIXTFbY0hdW2NIXVtjSF1bY0hdYzFbQ0gyXU9jMltjSF1jKFtjSF1jKGMyMylbY0hdW2NIXVtjSF1bY0hdMylbQ0gyXVtOSF1bQ0gyXWM0YyhbY0hdW2NIXVtjSF1bY0hdNClbQ0gyXU41W0NIMl1bQ0gyXU4oW0NIM10pW0NIMl1bQ0gyXTU=

>  <s_i_glide_gridfile>  (50) 
ATP-Grid

>  <s_lp_Force_Field>  (50) 
OPLS_2005

>  <s_lp_Variant>  (50) 
m_270004bbb____8349702____8127862-5

>  <s_lp_label>  (50) 
1459_sdstereoexpander_1_neutralizer_1_epik_5_stereoizer_1

>  <s_m_source_file>  (50) 
ATP-VSW-LIGPREP-002-in.maegz

>  <s_sd_BIOSOLVEIT.INFINISEE\_QUERY\_NAME>  (50) 
Ref-Lig

>  <s_sd_BIOSOLVEIT.INFINISEE\_QUERY\_SMILES>  (50) 
S(c1nc2c(cc1C[NH2+]Cc3ccc(cc3)C[NH+](C)C)cccc2)Cc4ccccc4

>  <s_sd_BIOSOLVEIT.INFINISEE\_REACTION\_NAME>  (50) 
m_270004bbb

>  <s_sd_BIOSOLVEIT.INFINISEE\_REAGENT1\_SMILES>  (50) 
[R1*]NCc1c(cccc1)CN2CCN(CC2)C

>  <s_sd_BIOSOLVEIT.INFINISEE\_REAGENT2\_SMILES>  (50) 
[R1*]Cc1cc(OCc2ccccc2)c3c(c1)cccc3

>  <s_sd_BIOSOLVEIT.INFINISEE\_SPACE>  (50) 
REALSpace_44bn_2023-08

>  <s_vsw_compound_code>  (50) 
46658

>  <s_vsw_variant>  (50) 
46658-5

>  <r_epik_Charging_Adjusted_Penalty>  (50) 
2.5131159707370099

>  <r_epik_Ionization_Penalty>  (50) 
3.9056000000000002

>  <r_epik_Ionization_Penalty_Charging>  (50) 
0.062100000000000002

>  <r_epik_Ionization_Penalty_Neutral>  (50) 
3.8435000000000001

>  <r_epik_State_Penalty>  (50) 
2.4510000000000001

>  <r_i_docking_score>  (50) 
-3.71626239896153

>  <r_i_glide_ecoul>  (50) 
-11.562497138977101

>  <r_i_glide_eff_state_penalty>  (50) 
2.4510000000000001

>  <r_i_glide_einternal>  (50) 
2.7558848857879599

>  <r_i_glide_emodel>  (50) 
-77.332862715895601

>  <r_i_glide_energy>  (50) 
-50.8292589187622

>  <r_i_glide_erotb>  (50) 
0.83392006795831997

>  <r_i_glide_esite>  (50) 
-0.10000000000000001

>  <r_i_glide_evdw>  (50) 
-39.266761779785199

>  <r_i_glide_gscore>  (50) 
-6.1672623989615296

>  <r_i_glide_hbond>  (50) 
-0.34753103974849198

>  <r_i_glide_ligand_efficiency>  (50) 
-0.106178925684615

>  <r_i_glide_ligand_efficiency_ln>  (50) 
-0.81580207457220399

>  <r_i_glide_ligand_efficiency_sa>  (50) 
-0.34731830624734999

>  <r_i_glide_lipo>  (50) 
-2.4034640400628202

>  <r_i_glide_metal>  (50) 
-0

>  <r_i_glide_rewards>  (50) 
-0.45247472727272497

>  <r_lp_Energy>  (50) 
42.881647000000001

>  <r_qp_ACxDN^.5/SA>  (50) 
0.0082827000000000005

>  <r_qp_CIQPlogS>  (50) 
-4.4610000000000003

>  <r_qp_EA(eV)>  (50) 
0.60499999999999998

>  <r_qp_FISA>  (50) 
21.593

>  <r_qp_FOSA>  (50) 
246.16999999999999

>  <r_qp_IP(eV)>  (50) 
8.2739999999999991

>  <r_qp_Jm>  (50) 
0.45463817070112

>  <r_qp_PISA>  (50) 
486.82299999999998

>  <r_qp_PSA>  (50) 
27.334

>  <r_qp_PercentHumanOralAbsorption>  (50) 
91.165999999999997

>  <r_qp_QPPCaco>  (50) 
95.903000000000006

>  <r_qp_QPPMDCK>  (50) 
53.146000000000001

>  <r_qp_QPlogBB>  (50) 
0.61299999999999999

>  <r_qp_QPlogHERG>  (50) 
-8.6560000000000006

>  <r_qp_QPlogKhsa>  (50) 
1.0780000000000001

>  <r_qp_QPlogKp>  (50) 
-3.464

>  <r_qp_QPlogPC16>  (50) 
15.788

>  <r_qp_QPlogPo/w>  (50) 
4.9100000000000001

>  <r_qp_QPlogPoct>  (50) 
22.312999999999999

>  <r_qp_QPlogPw>  (50) 
10.629

>  <r_qp_QPlogS>  (50) 
-2.5470000000000002

>  <r_qp_QPpolrz>  (50) 
52.534999999999997

>  <r_qp_SASA>  (50) 
754.58600000000001

>  <r_qp_SAamideO>  (50) 
0

>  <r_qp_SAfluorine>  (50) 
0

>  <r_qp_WPSA>  (50) 
0

>  <r_qp_accptHB>  (50) 
6.25

>  <r_qp_dip^2/V>  (50) 
0.0021080999999999999

>  <r_qp_dipole>  (50) 
1.7749999999999999

>  <r_qp_donorHB>  (50) 
1

>  <r_qp_glob>  (50) 
0.83784789999999998

>  <r_qp_mol_MW>  (50) 
465.637

>  <r_qp_volume>  (50) 
1494.731

>  <r_sd_BIOSOLVEIT.INFINISEE\_FTREES\_SIMILARITY>  (50) 
0.90800000000000003

>  <r_sd_BIOSOLVEIT.LOGP>  (50) 
1.5955999999999999

>  <r_sd_BIOSOLVEIT.MOLECULAR\_WEIGHT>  (50) 
468.661

>  <r_sd_BIOSOLVEIT.TPSA>  (50) 
34.719999999999999

>  <i_epik_Tot_Q>  (50) 
1

>  <i_epik_Tot_abs_Q>  (50) 
1

>  <i_f3d_flags>  (50) 
0

>  <i_i_glide_confnum>  (50) 
13

>  <i_i_glide_lignum>  (50) 
501

>  <i_i_glide_posenum>  (50) 
17

>  <i_i_glide_rotatable_bonds>  (50) 
9

>  <i_lp_mmshare_version>  (50) 
65135

>  <i_m_ct_format>  (50) 
2

>  <i_m_source_file_index>  (50) 
1459

>  <i_qp_#NandO>  (50) 
4

>  <i_qp_#acid>  (50) 
0

>  <i_qp_#amide>  (50) 
0

>  <i_qp_#amidine>  (50) 
0

>  <i_qp_#amine>  (50) 
3

>  <i_qp_#in34>  (50) 
0

>  <i_qp_#in56>  (50) 
28

>  <i_qp_#metab>  (50) 
8

>  <i_qp_#nonHatm>  (50) 
35

>  <i_qp_#noncon>  (50) 
4

>  <i_qp_#ringatoms>  (50) 
28

>  <i_qp_#rotor>  (50) 
9

>  <i_qp_#rtvFG>  (50) 
0

>  <i_qp_#stars>  (50) 
1

>  <i_qp_CNS>  (50) 
2

>  <i_qp_HumanOralAbsorption>  (50) 
3

>  <i_qp_RuleOfFive>  (50) 
0

>  <i_qp_RuleOfThree>  (50) 
1

>  <i_sd_BIOSOLVEIT.INFINISEE\_REAGENT1\_NAME>  (50) 
8349702

>  <i_sd_BIOSOLVEIT.INFINISEE\_REAGENT2\_NAME>  (50) 
8127862

>  <i_sd_BIOSOLVEIT.INFINISEE\_RESULT\_RANK>  (50) 
56660

>  <i_sd_version>  (50) 
0

>  <b_lp_Chiralities_Consistent>  (50) 
1

>  <b_sd_chiral_flag>  (50) 
0

>  <canonical_id>  (50) 
ATP-HTVS-9B930A3F277B

>  <compound_code>  (50) 
46658

>  <title>  (50) 
m_270004bbb____8349702____8127862

>  <variant>  (50) 
46658-5

>  <source_file>  (50) 
运行/运行/ATP-VSW/ATP-VSW-DOCK_HTVS_1-002_lib.maegz

>  <canonical_smiles>  (50) 
CN1CCN(Cc2ccccc2C[NH2+]Cc2cc(OCc3ccccc3)c3ccccc3c2)CC1

>  <scaffold>  (50) 
c1ccc(COc2cc(C[NH2+]Cc3ccccc3CN3CCNCC3)cc3ccccc23)cc1

>  <molecular_formula>  (50) 
C31H36N3O+

>  <acquisition_id_v2>  (50) 
ATP-ACQ2-0050

>  <selection_arm_v2>  (50) 
local_structure_bridge

>  <priority_v2>  (50) 
P1

$$$$
ATP-ACQ2-0051
     RDKit          3D

 70 73  0  0  0  0  0  0  0  0999 V2000
  200.3803  187.1354  159.2447 O   0  0  0  0  0  0  0  0  0  0  0  0
  200.4612  185.9229  159.0300 C   0  0  0  0  0  0  0  0  0  0  0  0
  199.5406  185.2276  158.3097 N   0  0  0  0  0  0  0  0  0  0  0  0
  199.7879  183.9033  157.9024 C   0  0  0  0  0  0  0  0  0  0  0  0
  200.8789  183.1897  158.2747 C   0  0  0  0  0  0  0  0  0  0  0  0
  201.8507  183.7972  159.2260 C   0  0  0  0  0  0  0  0  0  0  0  0
  201.6347  185.1555  159.5867 C   0  0  0  0  0  0  0  0  0  0  0  0
  202.5273  185.8143  160.4612 C   0  0  0  0  0  0  0  0  0  0  0  0
  203.6264  185.1387  161.0092 C   0  0  0  0  0  0  0  0  0  0  0  0
  203.8213  183.7834  160.7025 C   0  0  0  0  0  0  0  0  0  0  0  0
  202.9363  183.1162  159.8359 C   0  0  0  0  0  0  0  0  0  0  0  0
  201.1315  181.8485  157.7219 C   0  0  0  0  0  0  0  0  0  0  0  0
  202.2157  181.2642  157.6735 O   0  0  0  0  0  0  0  0  0  0  0  0
  200.0080  181.2668  157.2757 N   0  0  0  0  0  0  0  0  0  0  0  0
  199.8482  179.8396  157.0437 C   0  0  0  0  0  0  0  0  0  0  0  0
  199.8027  179.5404  155.5173 C   0  0  1  0  0  0  0  0  0  0  0  0
  199.5165  178.1002  155.1736 N   0  0  0  0  0  0  0  0  0  0  0  0
  200.0216  177.1085  156.1781 C   0  0  0  0  0  0  0  0  0  0  0  0
  201.5638  177.0784  156.3424 C   0  0  0  0  0  0  0  0  0  0  0  0
  199.8700  177.6818  153.7717 C   0  0  0  0  0  0  0  0  0  0  0  0
  199.2319  178.5140  152.6234 C   0  0  0  0  0  0  0  0  0  0  0  0
  198.8093  180.4884  154.8397 C   0  0  0  0  0  0  0  0  0  0  0  0
  199.2151  181.3145  153.7676 C   0  0  0  0  0  0  0  0  0  0  0  0
  198.3088  182.1411  153.1100 C   0  0  0  0  0  0  0  0  0  0  0  0
  196.9699  182.2269  153.5579 C   0  0  0  0  0  0  0  0  0  0  0  0
  196.5664  181.4655  154.6628 C   0  0  0  0  0  0  0  0  0  0  0  0
  197.4763  180.6089  155.3021 C   0  0  0  0  0  0  0  0  0  0  0  0
  198.3350  185.8832  157.7591 C   0  0  0  0  0  0  0  0  0  0  0  0
  197.2783  186.2680  158.7903 C   0  0  0  0  0  0  0  0  0  0  0  0
  197.4190  187.4322  159.5792 C   0  0  0  0  0  0  0  0  0  0  0  0
  196.4545  187.7671  160.5408 C   0  0  0  0  0  0  0  0  0  0  0  0
  195.3021  186.9797  160.7097 C   0  0  0  0  0  0  0  0  0  0  0  0
  194.3934  187.4085  161.6487 O   0  0  0  0  0  0  0  0  0  0  0  0
  193.0870  186.8657  161.5904 C   0  0  0  0  0  0  0  0  0  0  0  0
  195.1486  185.8205  159.9037 C   0  0  0  0  0  0  0  0  0  0  0  0
  196.1315  185.4626  158.9617 C   0  0  0  0  0  0  0  0  0  0  0  0
  199.0473  183.5345  157.2028 H   0  0  0  0  0  0  0  0  0  0  0  0
  202.3777  186.8546  160.7157 H   0  0  0  0  0  0  0  0  0  0  0  0
  204.3058  185.6551  161.6719 H   0  0  0  0  0  0  0  0  0  0  0  0
  204.6555  183.2494  161.1297 H   0  0  0  0  0  0  0  0  0  0  0  0
  203.1325  182.0714  159.6607 H   0  0  0  0  0  0  0  0  0  0  0  0
  199.1627  181.8204  157.2264 H   0  0  0  0  0  0  0  0  0  0  0  0
  200.6368  179.3044  157.5792 H   0  0  0  0  0  0  0  0  0  0  0  0
  198.9234  179.5155  157.5151 H   0  0  0  0  0  0  0  0  0  0  0  0
  200.7998  179.7681  155.1350 H   0  0  0  0  0  0  0  0  0  0  0  0
  199.5487  177.2489  157.1495 H   0  0  0  0  0  0  0  0  0  0  0  0
  199.6880  176.1149  155.8738 H   0  0  0  0  0  0  0  0  0  0  0  0
  201.8586  176.2602  156.9998 H   0  0  0  0  0  0  0  0  0  0  0  0
  201.9677  177.9885  156.7887 H   0  0  0  0  0  0  0  0  0  0  0  0
  202.0884  176.9414  155.3970 H   0  0  0  0  0  0  0  0  0  0  0  0
  200.9549  177.7422  153.6511 H   0  0  0  0  0  0  0  0  0  0  0  0
  199.6100  176.6281  153.6678 H   0  0  0  0  0  0  0  0  0  0  0  0
  199.4629  178.0311  151.6484 H   0  0  0  0  0  0  0  0  0  0  0  0
  199.6371  179.5250  152.6060 H   0  0  0  0  0  0  0  0  0  0  0  0
  198.1371  178.5201  152.7181 H   0  0  0  0  0  0  0  0  0  0  0  0
  200.2603  181.3118  153.4514 H   0  0  0  0  0  0  0  0  0  0  0  0
  198.6102  182.6927  152.2277 H   0  0  0  0  0  0  0  0  0  0  0  0
  196.2527  182.8402  153.0210 H   0  0  0  0  0  0  0  0  0  0  0  0
  195.5473  181.5285  155.0119 H   0  0  0  0  0  0  0  0  0  0  0  0
  197.1227  179.9960  156.1327 H   0  0  0  0  0  0  0  0  0  0  0  0
  198.6244  186.7698  157.1842 H   0  0  0  0  0  0  0  0  0  0  0  0
  197.8470  185.2473  157.0239 H   0  0  0  0  0  0  0  0  0  0  0  0
  198.2653  188.0914  159.4630 H   0  0  0  0  0  0  0  0  0  0  0  0
  196.6081  188.6515  161.1426 H   0  0  0  0  0  0  0  0  0  0  0  0
  192.4779  187.3214  162.3684 H   0  0  0  0  0  0  0  0  0  0  0  0
  193.0982  185.7941  161.7751 H   0  0  0  0  0  0  0  0  0  0  0  0
  192.6140  187.0564  160.6264 H   0  0  0  0  0  0  0  0  0  0  0  0
  194.2702  185.1937  159.9843 H   0  0  0  0  0  0  0  0  0  0  0  0
  195.9870  184.5770  158.3533 H   0  0  0  0  0  0  0  0  0  0  0  0
  198.5095  178.0248  155.2528 H   0  0  0  0  0  0  0  0  0  0  0  0
  1  2  2  0
  2  3  1  0
  2  7  1  0
  3  4  1  0
  3 28  1  0
  4  5  2  0
  4 37  1  0
  5  6  1  0
  5 12  1  0
  6  7  1  0
  6 11  2  0
  7  8  2  0
  8  9  1  0
  8 38  1  0
  9 10  2  0
  9 39  1  0
 10 11  1  0
 10 40  1  0
 11 41  1  0
 12 13  2  0
 12 14  1  0
 14 15  1  0
 14 42  1  0
 15 16  1  0
 15 43  1  0
 15 44  1  0
 16 17  1  0
 16 22  1  0
 16 45  1  6
 17 18  1  0
 17 20  1  0
 17 70  1  0
 18 19  1  0
 18 46  1  0
 18 47  1  0
 19 48  1  0
 19 49  1  0
 19 50  1  0
 20 21  1  0
 20 51  1  0
 20 52  1  0
 21 53  1  0
 21 54  1  0
 21 55  1  0
 22 23  2  0
 22 27  1  0
 23 24  1  0
 23 56  1  0
 24 25  2  0
 24 57  1  0
 25 26  1  0
 25 58  1  0
 26 27  2  0
 26 59  1  0
 27 60  1  0
 28 29  1  0
 28 61  1  0
 28 62  1  0
 29 30  1  0
 29 36  2  0
 30 31  2  0
 30 63  1  0
 31 32  1  0
 31 64  1  0
 32 33  1  0
 32 35  2  0
 33 34  1  0
 34 65  1  0
 34 66  1  0
 34 67  1  0
 35 36  1  0
 35 68  1  0
 36 69  1  0
M  CHG  1  17   1
M  END
>  <s_epik_cmdline>  (51) 
J2VwaWtfcHl0aG9uJywgJy1waCcsICc3LjAwMDAwMCcsICctcGh0JywgJzIuMDAwMDAwJywgJy1tcycsICcxNicsICctdG4nLCAnOCcsICctbWEnLCAnMjAwJywgJy1pbWFlJywgJzxpbmZpbGUubWFlPicsICctb21hZScsICc8b3V0ZmlsZS5tYWU+Jw==

>  <s_epik_input>  (51) 
W0NIM11PYyhbY0hdW2NIXTEpW2NIXVtjSF1jMVtDSDJdbihjKD1PKWMoYzIzKVtjSF1bY0hdW2NIXVtjSF0zKVtjSF1jMkMoPU8pW05IXVtDSDJdW0NAQEhdKE4oW0NIMl1bQ0gzXSlbQ0gyXVtDSDNdKWM0W2NIXVtjSF1bY0hdW2NIXVtjSF00

>  <s_i_glide_gridfile>  (51) 
ATP-Grid

>  <s_lp_Force_Field>  (51) 
OPLS_2005

>  <s_lp_Variant>  (51) 
YAS_R001____OTV6666767____OTV7020410249-2

>  <s_lp_label>  (51) 
148_sdstereoexpander_2_neutralizer_1_epik_1_stereoizer_1

>  <s_m_source_file>  (51) 
ATP-VSW-LIGPREP-002-in.maegz

>  <s_sd_BIOSOLVEIT.INFINISEE\_QUERY\_NAME>  (51) 
Ref-Lig

>  <s_sd_BIOSOLVEIT.INFINISEE\_QUERY\_SMILES>  (51) 
S(c1nc2c(cc1C[NH2+]Cc3ccc(cc3)C[NH+](C)C)cccc2)Cc4ccccc4

>  <s_sd_BIOSOLVEIT.INFINISEE\_REACTION\_NAME>  (51) 
YAS_R001

>  <s_sd_BIOSOLVEIT.INFINISEE\_REAGENT1\_NAME>  (51) 
OTV6666767

>  <s_sd_BIOSOLVEIT.INFINISEE\_REAGENT1\_SMILES>  (51) 
O=C1N(C=C(c2c1cccc2)C(=O)O)Cc3ccc(OC)cc3

>  <s_sd_BIOSOLVEIT.INFINISEE\_REAGENT2\_NAME>  (51) 
OTV7020410249

>  <s_sd_BIOSOLVEIT.INFINISEE\_REAGENT2\_SMILES>  (51) 
N(C(c1ccccc1)CN)(CC)CC

>  <s_sd_BIOSOLVEIT.INFINISEE\_SPACE>  (51) 
CHEMriya_12bn_2022-01

>  <s_vsw_compound_code>  (51) 
4706

>  <s_vsw_variant>  (51) 
4706-2

>  <r_epik_Charging_Adjusted_Penalty>  (51) 
0.131395756644647

>  <r_epik_Ionization_Penalty>  (51) 
0.065699999999999995

>  <r_epik_Ionization_Penalty_Charging>  (51) 
0.065699999999999995

>  <r_epik_Ionization_Penalty_Neutral>  (51) 
0

>  <r_epik_State_Penalty>  (51) 
0.065699999999999995

>  <r_i_docking_score>  (51) 
-3.8982798363093498

>  <r_i_glide_ecoul>  (51) 
-6.4818158149719203

>  <r_i_glide_eff_state_penalty>  (51) 
0.065699999999999995

>  <r_i_glide_einternal>  (51) 
6.1455206871032697

>  <r_i_glide_emodel>  (51) 
-48.992031722255497

>  <r_i_glide_energy>  (51) 
-39.126961231231697

>  <r_i_glide_erotb>  (51) 
0.60535024954427596

>  <r_i_glide_esite>  (51) 
-0.045977431088570199

>  <r_i_glide_evdw>  (51) 
-32.645145416259801

>  <r_i_glide_gscore>  (51) 
-3.9639798363093499

>  <r_i_glide_hbond>  (51) 
0

>  <r_i_glide_ligand_efficiency>  (51) 
-0.108285551008593

>  <r_i_glide_ligand_efficiency_ln>  (51) 
-0.85049934093267299

>  <r_i_glide_ligand_efficiency_sa>  (51) 
-0.35755101110974502

>  <r_i_glide_lipo>  (51) 
-1.52182751196579

>  <r_i_glide_metal>  (51) 
-0

>  <r_i_glide_rewards>  (51) 
-0.39699549974048398

>  <r_lp_Energy>  (51) 
45.148279000000002

>  <r_lp_tautomer_probability>  (51) 
1

>  <r_qp_ACxDN^.5/SA>  (51) 
0.0108182

>  <r_qp_CIQPlogS>  (51) 
-6

>  <r_qp_EA(eV)>  (51) 
0.621

>  <r_qp_FISA>  (51) 
63.625

>  <r_qp_FOSA>  (51) 
340.49700000000001

>  <r_qp_IP(eV)>  (51) 
8.8420000000000005

>  <r_qp_Jm>  (51) 
0.093672811698316094

>  <r_qp_PISA>  (51) 
358.48099999999999

>  <r_qp_PSA>  (51) 
72.021000000000001

>  <r_qp_PercentHumanOralAbsorption>  (51) 
100

>  <r_qp_QPPCaco>  (51) 
615.81100000000004

>  <r_qp_QPPMDCK>  (51) 
324.07600000000002

>  <r_qp_QPlogBB>  (51) 
-0.26000000000000001

>  <r_qp_QPlogHERG>  (51) 
-6.7599999999999998

>  <r_qp_QPlogKhsa>  (51) 
0.59799999999999998

>  <r_qp_QPlogKp>  (51) 
-2.532

>  <r_qp_QPlogPC16>  (51) 
15.173999999999999

>  <r_qp_QPlogPo/w>  (51) 
4.633

>  <r_qp_QPlogPoct>  (51) 
22.956

>  <r_qp_QPlogPw>  (51) 
11.81

>  <r_qp_QPlogS>  (51) 
-4.181

>  <r_qp_QPpolrz>  (51) 
50.494

>  <r_qp_SASA>  (51) 
762.60199999999998

>  <r_qp_SAamideO>  (51) 
0

>  <r_qp_SAfluorine>  (51) 
0

>  <r_qp_WPSA>  (51) 
0

>  <r_qp_accptHB>  (51) 
8.25

>  <r_qp_dip^2/V>  (51) 
0.028410700000000001

>  <r_qp_dipole>  (51) 
6.5069999999999997

>  <r_qp_donorHB>  (51) 
1

>  <r_qp_glob>  (51) 
0.82743460000000002

>  <r_qp_mol_MW>  (51) 
483.60899999999998

>  <r_qp_volume>  (51) 
1490.3900000000001

>  <r_sd_BIOSOLVEIT.INFINISEE\_FTREES\_SIMILARITY>  (51) 
0.90300000000000002

>  <r_sd_BIOSOLVEIT.LOGP>  (51) 
3.4542000000000002

>  <r_sd_BIOSOLVEIT.MOLECULAR\_WEIGHT>  (51) 
484.61700000000002

>  <r_sd_BIOSOLVEIT.TPSA>  (51) 
64.769999999999996

>  <i_epik_Tot_Q>  (51) 
1

>  <i_epik_Tot_abs_Q>  (51) 
1

>  <i_f3d_flags>  (51) 
0

>  <i_i_glide_confnum>  (51) 
7

>  <i_i_glide_lignum>  (51) 
112

>  <i_i_glide_posenum>  (51) 
11

>  <i_i_glide_rotatable_bonds>  (51) 
11

>  <i_lp_mmshare_version>  (51) 
65135

>  <i_m_ct_format>  (51) 
2

>  <i_m_source_file_index>  (51) 
148

>  <i_qp_#NandO>  (51) 
6

>  <i_qp_#acid>  (51) 
0

>  <i_qp_#amide>  (51) 
0

>  <i_qp_#amidine>  (51) 
0

>  <i_qp_#amine>  (51) 
1

>  <i_qp_#in34>  (51) 
0

>  <i_qp_#in56>  (51) 
22

>  <i_qp_#metab>  (51) 
5

>  <i_qp_#nonHatm>  (51) 
36

>  <i_qp_#noncon>  (51) 
0

>  <i_qp_#ringatoms>  (51) 
22

>  <i_qp_#rotor>  (51) 
10

>  <i_qp_#rtvFG>  (51) 
0

>  <i_qp_#stars>  (51) 
0

>  <i_qp_CNS>  (51) 
1

>  <i_qp_HumanOralAbsorption>  (51) 
3

>  <i_qp_RuleOfFive>  (51) 
0

>  <i_qp_RuleOfThree>  (51) 
0

>  <i_sd_BIOSOLVEIT.INFINISEE\_RESULT\_RANK>  (51) 
85443

>  <i_sd_version>  (51) 
0

>  <b_lp_Chiralities_Consistent>  (51) 
1

>  <b_sd_chiral_flag>  (51) 
0

>  <canonical_id>  (51) 
ATP-HTVS-C894FAAE5B10

>  <compound_code>  (51) 
4706

>  <title>  (51) 
YAS_R001____OTV6666767____OTV7020410249

>  <variant>  (51) 
4706-2

>  <source_file>  (51) 
运行/运行/ATP-VSW/ATP-VSW-DOCK_HTVS_1-002_lib.maegz

>  <canonical_smiles>  (51) 
CC[NH+](CC)[C@H](CNC(=O)c1cn(Cc2ccc(OC)cc2)c(=O)c2ccccc12)c1ccccc1

>  <scaffold>  (51) 
O=C(NCCc1ccccc1)c1cn(Cc2ccccc2)c(=O)c2ccccc12

>  <molecular_formula>  (51) 
C30H34N3O3+

>  <acquisition_id_v2>  (51) 
ATP-ACQ2-0051

>  <selection_arm_v2>  (51) 
scaffold_score_exploration

>  <priority_v2>  (51) 
P1

$$$$
ATP-ACQ2-0052
     RDKit          3D

 56 59  0  0  0  0  0  0  0  0999 V2000
  199.5524  186.1449  146.5899 Cl  0  0  0  0  0  0  0  0  0  0  0  0
  198.8163  185.4025  147.9665 C   0  0  0  0  0  0  0  0  0  0  0  0
  199.2644  185.7081  149.2687 C   0  0  0  0  0  0  0  0  0  0  0  0
  198.6639  185.0980  150.3881 C   0  0  0  0  0  0  0  0  0  0  0  0
  197.6081  184.1778  150.2151 C   0  0  0  0  0  0  0  0  0  0  0  0
  197.1550  183.8868  148.9091 C   0  0  0  0  0  0  0  0  0  0  0  0
  197.7578  184.4921  147.7899 C   0  0  0  0  0  0  0  0  0  0  0  0
  196.9576  183.5188  151.4344 C   0  0  1  0  0  0  0  0  0  0  0  0
  195.5473  183.4901  151.3306 O   0  0  0  0  0  0  0  0  0  0  0  0
  197.4697  182.0806  151.6439 C   0  0  0  0  0  0  0  0  0  0  0  0
  197.6590  181.3548  150.6680 O   0  0  0  0  0  0  0  0  0  0  0  0
  197.6261  181.6859  152.9236 N   0  0  0  0  0  0  0  0  0  0  0  0
  198.2415  180.5009  153.4230 C   0  0  0  0  0  0  0  0  0  0  0  0
  198.9635  179.6753  152.6299 N   0  0  0  0  0  0  0  0  0  0  0  0
  199.5643  178.5785  153.1351 C   0  0  0  0  0  0  0  0  0  0  0  0
  199.4840  178.2519  154.5111 C   0  0  0  0  0  0  0  0  0  0  0  0
  198.7374  179.0897  155.3582 C   0  0  0  0  0  0  0  0  0  0  0  0
  198.1186  180.2358  154.8144 C   0  0  0  0  0  0  0  0  0  0  0  0
  197.3519  181.0845  155.7149 C   0  0  0  0  0  0  0  0  0  0  0  0
  196.7312  181.7747  156.5069 C   0  0  0  0  0  0  0  0  0  0  0  0
  195.9944  182.5985  157.4671 C   0  0  1  0  0  0  0  0  0  0  0  0
  194.7612  181.8369  157.7282 N   0  0  0  0  0  0  0  0  0  0  0  0
  196.7734  182.9309  158.7590 C   0  0  0  0  0  0  0  0  0  0  0  0
  196.4362  184.3035  159.3216 C   0  0  0  0  0  0  0  0  0  0  0  0
  195.1904  184.5615  159.9338 C   0  0  0  0  0  0  0  0  0  0  0  0
  194.9087  185.8446  160.4522 C   0  0  0  0  0  0  0  0  0  0  0  0
  193.7150  186.0953  161.0340 F   0  0  0  0  0  0  0  0  0  0  0  0
  195.8677  186.8688  160.3652 C   0  0  0  0  0  0  0  0  0  0  0  0
  197.1086  186.6192  159.7517 C   0  0  0  0  0  0  0  0  0  0  0  0
  197.3918  185.3412  159.2322 C   0  0  0  0  0  0  0  0  0  0  0  0
  200.0866  177.0817  155.0146 C   0  0  0  0  0  0  0  0  0  0  0  0
  200.8028  176.2359  154.1458 C   0  0  0  0  0  0  0  0  0  0  0  0
  200.9083  176.5606  152.7798 C   0  0  0  0  0  0  0  0  0  0  0  0
  200.2950  177.7267  152.2846 C   0  0  0  0  0  0  0  0  0  0  0  0
  194.2775  181.7933  156.8225 H   0  0  0  0  0  0  0  0  0  0  0  0
  194.1644  182.3171  158.3728 H   0  0  0  0  0  0  0  0  0  0  0  0
  200.0687  186.4140  149.4105 H   0  0  0  0  0  0  0  0  0  0  0  0
  199.0182  185.3348  151.3791 H   0  0  0  0  0  0  0  0  0  0  0  0
  196.3556  183.1764  148.7634 H   0  0  0  0  0  0  0  0  0  0  0  0
  197.4062  184.2569  146.7960 H   0  0  0  0  0  0  0  0  0  0  0  0
  197.2067  184.1351  152.3007 H   0  0  0  0  0  0  0  0  0  0  0  0
  195.1662  183.4706  152.2137 H   0  0  0  0  0  0  0  0  0  0  0  0
  197.3054  182.3254  153.6353 H   0  0  0  0  0  0  0  0  0  0  0  0
  198.6392  178.8550  156.4124 H   0  0  0  0  0  0  0  0  0  0  0  0
  195.7382  183.5093  156.9281 H   0  0  0  0  0  0  0  0  0  0  0  0
  196.5916  182.1802  159.5283 H   0  0  0  0  0  0  0  0  0  0  0  0
  197.8502  182.8933  158.5785 H   0  0  0  0  0  0  0  0  0  0  0  0
  194.4460  183.7874  160.0150 H   0  0  0  0  0  0  0  0  0  0  0  0
  195.6536  187.8469  160.7691 H   0  0  0  0  0  0  0  0  0  0  0  0
  197.8485  187.4050  159.6877 H   0  0  0  0  0  0  0  0  0  0  0  0
  198.3549  185.1632  158.7708 H   0  0  0  0  0  0  0  0  0  0  0  0
  199.9931  176.8211  156.0602 H   0  0  0  0  0  0  0  0  0  0  0  0
  201.2712  175.3379  154.5236 H   0  0  0  0  0  0  0  0  0  0  0  0
  201.4573  175.9113  152.1102 H   0  0  0  0  0  0  0  0  0  0  0  0
  200.3679  177.9695  151.2356 H   0  0  0  0  0  0  0  0  0  0  0  0
  195.0080  180.8926  158.0431 H   0  0  0  0  0  0  0  0  0  0  0  0
  1  2  1  0
  2  3  1  0
  2  7  2  0
  3  4  2  0
  3 37  1  0
  4  5  1  0
  4 38  1  0
  5  6  2  0
  5  8  1  0
  6  7  1  0
  6 39  1  0
  7 40  1  0
  8  9  1  0
  8 10  1  0
  8 41  1  1
  9 42  1  0
 10 11  2  0
 10 12  1  0
 12 13  1  0
 12 43  1  0
 13 14  2  0
 13 18  1  0
 14 15  1  0
 15 16  1  0
 15 34  2  0
 16 17  1  0
 16 31  2  0
 17 18  2  0
 17 44  1  0
 18 19  1  0
 19 20  3  0
 20 21  1  0
 21 22  1  0
 21 23  1  0
 21 45  1  6
 22 35  1  0
 22 36  1  0
 22 56  1  0
 23 24  1  0
 23 46  1  0
 23 47  1  0
 24 25  1  0
 24 30  2  0
 25 26  2  0
 25 48  1  0
 26 27  1  0
 26 28  1  0
 28 29  2  0
 28 49  1  0
 29 30  1  0
 29 50  1  0
 30 51  1  0
 31 32  1  0
 31 52  1  0
 32 33  2  0
 32 53  1  0
 33 34  1  0
 33 54  1  0
 34 55  1  0
M  CHG  1  22   1
M  END
>  <s_epik_cmdline>  (52) 
J2VwaWtfcHl0aG9uJywgJy1waCcsICc3LjAwMDAwMCcsICctcGh0JywgJzIuMDAwMDAwJywgJy1tcycsICcxNicsICctdG4nLCAnOCcsICctbWEnLCAnMjAwJywgJy1pbWFlJywgJzxpbmZpbGUubWFlPicsICctb21hZScsICc8b3V0ZmlsZS5tYWU+Jw==

>  <s_epik_input>  (52) 
Q2xjMVtjSF1bY0hdYyhbY0hdW2NIXTEpW0NAQEhdKFtPSF0pQyg9TylbTkhdYyhuMiljKFtjSF1jKGMyMylbY0hdW2NIXVtjSF1bY0hdMylDI0NbQ0BASF0oW05IMl0pW0NIMl1jNFtjSF1jKEYpW2NIXVtjSF1bY0hdNA==

>  <s_i_glide_gridfile>  (52) 
ATP-Grid

>  <s_lp_Force_Field>  (52) 
OPLS_2005

>  <s_lp_Variant>  (52) 
rxn503b____EMOL491815____EMOL44466703____EMOL313110234-7

>  <s_lp_label>  (52) 
2609_sdstereoexpander_3_neutralizer_1_epik_2_stereoizer_1

>  <s_m_source_file>  (52) 
ATP-VSW-LIGPREP-001-in.maegz

>  <s_sd_BIOSOLVEIT.INFINISEE\_QUERY\_NAME>  (52) 
Ref-Lig

>  <s_sd_BIOSOLVEIT.INFINISEE\_QUERY\_SMILES>  (52) 
S(c1nc2c(cc1C[NH2+]Cc3ccc(cc3)C[NH+](C)C)cccc2)Cc4ccccc4

>  <s_sd_BIOSOLVEIT.INFINISEE\_REACTION\_NAME>  (52) 
rxn503b

>  <s_sd_BIOSOLVEIT.INFINISEE\_REAGENT1\_NAME>  (52) 
EMOL491815

>  <s_sd_BIOSOLVEIT.INFINISEE\_REAGENT1\_SMILES>  (52) 
Clc1ccc(cc1)C(O)C(=O)O

>  <s_sd_BIOSOLVEIT.INFINISEE\_REAGENT2\_NAME>  (52) 
EMOL44466703

>  <s_sd_BIOSOLVEIT.INFINISEE\_REAGENT2\_SMILES>  (52) 
Brc1c(nc2c(c1)cccc2)N

>  <s_sd_BIOSOLVEIT.INFINISEE\_REAGENT3\_NAME>  (52) 
EMOL313110234

>  <s_sd_BIOSOLVEIT.INFINISEE\_REAGENT3\_SMILES>  (52) 
Fc1cc(ccc1)CC(N)C#C

>  <s_sd_BIOSOLVEIT.INFINISEE\_SPACE>  (52) 
eXplore_7tr_2022-12

>  <s_vsw_compound_code>  (52) 
83457

>  <s_vsw_variant>  (52) 
83457-7

>  <r_epik_Charging_Adjusted_Penalty>  (52) 
1.22591159016581

>  <r_epik_Ionization_Penalty>  (52) 
0.61370000000000002

>  <r_epik_Ionization_Penalty_Charging>  (52) 
0.61299999999999999

>  <r_epik_Ionization_Penalty_Neutral>  (52) 
0.00080000000000000004

>  <r_epik_State_Penalty>  (52) 
0.61299999999999999

>  <r_i_docking_score>  (52) 
-6.2689748187417296

>  <r_i_glide_ecoul>  (52) 
-16.7718410491943

>  <r_i_glide_eff_state_penalty>  (52) 
0.61299999999999999

>  <r_i_glide_einternal>  (52) 
9.3843774795532209

>  <r_i_glide_emodel>  (52) 
-82.464376881500499

>  <r_i_glide_energy>  (52) 
-53.4098796844482

>  <r_i_glide_erotb>  (52) 
0.37684678745037198

>  <r_i_glide_esite>  (52) 
-0.107165149729572

>  <r_i_glide_evdw>  (52) 
-36.638038635253899

>  <r_i_glide_gscore>  (52) 
-6.88197481874173

>  <r_i_glide_hbond>  (52) 
-0.36514872516555802

>  <r_i_glide_ligand_efficiency>  (52) 
-0.184381612315933

>  <r_i_glide_ligand_efficiency_ln>  (52) 
-1.3849923762476599

>  <r_i_glide_ligand_efficiency_sa>  (52) 
-0.59732484649513995

>  <r_i_glide_lipo>  (52) 
-2.2086180396748998

>  <r_i_glide_metal>  (52) 
-0

>  <r_i_glide_rewards>  (52) 
-0.23021160248022601

>  <r_lp_Energy>  (52) 
24.827504000000001

>  <r_qp_ACxDN^.5/SA>  (52) 
0.016679599999999999

>  <r_qp_CIQPlogS>  (52) 
-6.3499999999999996

>  <r_qp_EA(eV)>  (52) 
1.048

>  <r_qp_FISA>  (52) 
136.19499999999999

>  <r_qp_FOSA>  (52) 
45.216000000000001

>  <r_qp_IP(eV)>  (52) 
8.7509999999999994

>  <r_qp_Jm>  (52) 
0.00180927780837379

>  <r_qp_PISA>  (52) 
468.76100000000002

>  <r_qp_PSA>  (52) 
90.802000000000007

>  <r_qp_PercentHumanOralAbsorption>  (52) 
89.986999999999995

>  <r_qp_QPPCaco>  (52) 
126.258

>  <r_qp_QPPMDCK>  (52) 
189.50700000000001

>  <r_qp_QPlogBB>  (52) 
-0.72999999999999998

>  <r_qp_QPlogHERG>  (52) 
-7.5410000000000004

>  <r_qp_QPlogKhsa>  (52) 
0.60699999999999998

>  <r_qp_QPlogKp>  (52) 
-3.577

>  <r_qp_QPlogPC16>  (52) 
16.440999999999999

>  <r_qp_QPlogPo/w>  (52) 
4.3440000000000003

>  <r_qp_QPlogPoct>  (52) 
26.478000000000002

>  <r_qp_QPlogPw>  (52) 
15.635999999999999

>  <r_qp_QPlogS>  (52) 
-4.8410000000000002

>  <r_qp_QPpolrz>  (52) 
48.32

>  <r_qp_SASA>  (52) 
743.423

>  <r_qp_SAamideO>  (52) 
0

>  <r_qp_SAfluorine>  (52) 
41.182000000000002

>  <r_qp_WPSA>  (52) 
93.251000000000005

>  <r_qp_accptHB>  (52) 
6.2000000000000002

>  <r_qp_dip^2/V>  (52) 
0.036093699999999999

>  <r_qp_dipole>  (52) 
7.093

>  <r_qp_donorHB>  (52) 
4

>  <r_qp_glob>  (52) 
0.81166970000000005

>  <r_qp_mol_MW>  (52) 
473.93299999999999

>  <r_qp_volume>  (52) 
1393.721

>  <r_sd_BIOSOLVEIT.INFINISEE\_FTREES\_SIMILARITY>  (52) 
0.91100000000000003

>  <r_sd_BIOSOLVEIT.LOGP>  (52) 
3.9041000000000001

>  <r_sd_BIOSOLVEIT.MOLECULAR\_WEIGHT>  (52) 
474.94099999999997

>  <r_sd_BIOSOLVEIT.TPSA>  (52) 
89.859999999999999

>  <i_epik_Tot_Q>  (52) 
1

>  <i_epik_Tot_abs_Q>  (52) 
1

>  <i_f3d_flags>  (52) 
0

>  <i_i_glide_confnum>  (52) 
5

>  <i_i_glide_lignum>  (52) 
1094

>  <i_i_glide_posenum>  (52) 
8

>  <i_i_glide_rotatable_bonds>  (52) 
9

>  <i_lp_mmshare_version>  (52) 
65135

>  <i_m_ct_format>  (52) 
2

>  <i_m_source_file_index>  (52) 
2609

>  <i_qp_#NandO>  (52) 
5

>  <i_qp_#acid>  (52) 
0

>  <i_qp_#amide>  (52) 
0

>  <i_qp_#amidine>  (52) 
0

>  <i_qp_#amine>  (52) 
1

>  <i_qp_#in34>  (52) 
0

>  <i_qp_#in56>  (52) 
22

>  <i_qp_#metab>  (52) 
5

>  <i_qp_#nonHatm>  (52) 
34

>  <i_qp_#noncon>  (52) 
0

>  <i_qp_#ringatoms>  (52) 
22

>  <i_qp_#rotor>  (52) 
9

>  <i_qp_#rtvFG>  (52) 
0

>  <i_qp_#stars>  (52) 
1

>  <i_qp_CNS>  (52) 
-1

>  <i_qp_HumanOralAbsorption>  (52) 
3

>  <i_qp_RuleOfFive>  (52) 
0

>  <i_qp_RuleOfThree>  (52) 
0

>  <i_sd_BIOSOLVEIT.INFINISEE\_RESULT\_RANK>  (52) 
42288

>  <i_sd_version>  (52) 
0

>  <b_lp_Chiralities_Consistent>  (52) 
1

>  <b_sd_chiral_flag>  (52) 
0

>  <canonical_id>  (52) 
ATP-HTVS-54A1786C1F00

>  <compound_code>  (52) 
83457

>  <title>  (52) 
rxn503b____EMOL491815____EMOL44466703____EMOL313110234

>  <variant>  (52) 
83457-7

>  <source_file>  (52) 
运行/运行/ATP-VSW/ATP-VSW-DOCK_HTVS_1-001_lib/ATP-VSW-DOCK_HTVS_1-001_lib

>  <canonical_smiles>  (52) 
[NH3+][C@H](C#Cc1cc2ccccc2nc1NC(=O)[C@H](O)c1ccc(Cl)cc1)Cc1cccc(F)c1

>  <scaffold>  (52) 
O=C(Cc1ccccc1)Nc1nc2ccccc2cc1C#CCCc1ccccc1

>  <molecular_formula>  (52) 
C27H22ClFN3O2+

>  <acquisition_id_v2>  (52) 
ATP-ACQ2-0052

>  <selection_arm_v2>  (52) 
exploitation

>  <priority_v2>  (52) 
P1

$$$$
ATP-ACQ2-0053
     RDKit          3D

 55 57  0  0  0  0  0  0  0  0999 V2000
  200.5332  177.4039  155.7162 Cl  0  0  0  0  0  0  0  0  0  0  0  0
  199.4509  178.6717  155.2921 C   0  0  0  0  0  0  0  0  0  0  0  0
  199.1646  179.0341  153.6176 S   0  0  0  0  0  0  0  0  0  0  0  0
  198.0604  180.3249  154.0621 C   0  0  0  0  0  0  0  0  0  0  0  0
  197.4269  181.0889  152.9672 C   0  0  0  0  0  0  0  0  0  0  0  0
  197.0531  182.2462  153.1571 O   0  0  0  0  0  0  0  0  0  0  0  0
  197.2483  180.4360  151.8074 N   0  0  0  0  0  0  0  0  0  0  0  0
  196.5700  180.9617  150.6301 C   0  0  2  0  0  0  0  0  0  0  0  0
  196.4317  179.9018  149.6105 C   0  0  0  0  0  0  0  0  0  0  0  0
  196.3595  179.0385  148.7500 C   0  0  0  0  0  0  0  0  0  0  0  0
  197.2556  182.2035  150.0630 C   0  0  0  0  0  0  0  0  0  0  0  0
  198.5488  182.1245  149.5004 C   0  0  0  0  0  0  0  0  0  0  0  0
  199.1798  183.2775  148.9959 C   0  0  0  0  0  0  0  0  0  0  0  0
  198.5239  184.5231  149.0558 C   0  0  0  0  0  0  0  0  0  0  0  0
  197.2391  184.6125  149.6246 C   0  0  0  0  0  0  0  0  0  0  0  0
  196.6098  183.4582  150.1324 C   0  0  0  0  0  0  0  0  0  0  0  0
  197.9764  180.4724  155.4294 C   0  0  0  0  0  0  0  0  0  0  0  0
  197.2228  181.4594  156.0989 N   0  0  0  0  0  0  0  0  0  0  0  0
  197.5114  181.8037  157.4799 C   0  0  0  0  0  0  0  0  0  0  0  0
  196.5584  182.7842  158.1234 C   0  0  0  0  0  0  0  0  0  0  0  0
  197.0634  183.9420  158.7453 C   0  0  0  0  0  0  0  0  0  0  0  0
  196.2000  184.8223  159.4297 C   0  0  0  0  0  0  0  0  0  0  0  0
  194.8152  184.5477  159.4691 C   0  0  0  0  0  0  0  0  0  0  0  0
  194.3041  183.4019  158.8310 C   0  0  0  0  0  0  0  0  0  0  0  0
  195.1740  182.5146  158.1694 C   0  0  0  0  0  0  0  0  0  0  0  0
  196.7666  186.0387  160.1331 C   0  0  0  0  0  0  0  0  0  0  0  0
  196.4646  187.3064  159.4251 N   0  0  0  0  0  0  0  0  0  0  0  0
  196.8193  188.4890  160.2455 C   0  0  0  0  0  0  0  0  0  0  0  0
  197.0458  187.3829  158.0628 C   0  0  0  0  0  0  0  0  0  0  0  0
  198.7649  179.5029  156.1333 C   0  0  0  0  0  0  0  0  0  0  0  0
  197.5650  179.4790  151.7582 H   0  0  0  0  0  0  0  0  0  0  0  0
  195.5511  181.2165  150.9283 H   0  0  0  0  0  0  0  0  0  0  0  0
  196.3434  178.2851  147.9939 H   0  0  0  0  0  0  0  0  0  0  0  0
  199.0691  181.1796  149.4603 H   0  0  0  0  0  0  0  0  0  0  0  0
  200.1670  183.2103  148.5648 H   0  0  0  0  0  0  0  0  0  0  0  0
  199.0066  185.4113  148.6695 H   0  0  0  0  0  0  0  0  0  0  0  0
  196.7400  185.5710  149.6762 H   0  0  0  0  0  0  0  0  0  0  0  0
  195.6328  183.5356  150.5860 H   0  0  0  0  0  0  0  0  0  0  0  0
  196.7371  182.1495  155.5309 H   0  0  0  0  0  0  0  0  0  0  0  0
  197.4842  180.9111  158.1047 H   0  0  0  0  0  0  0  0  0  0  0  0
  198.5214  182.2091  157.5184 H   0  0  0  0  0  0  0  0  0  0  0  0
  198.1264  184.1355  158.7083 H   0  0  0  0  0  0  0  0  0  0  0  0
  194.1372  185.2181  159.9754 H   0  0  0  0  0  0  0  0  0  0  0  0
  193.2419  183.1997  158.8425 H   0  0  0  0  0  0  0  0  0  0  0  0
  194.7824  181.6251  157.6945 H   0  0  0  0  0  0  0  0  0  0  0  0
  196.3367  186.0722  161.1361 H   0  0  0  0  0  0  0  0  0  0  0  0
  197.8464  185.9276  160.2480 H   0  0  0  0  0  0  0  0  0  0  0  0
  197.8938  188.5408  160.4246 H   0  0  0  0  0  0  0  0  0  0  0  0
  196.3233  188.4553  161.2156 H   0  0  0  0  0  0  0  0  0  0  0  0
  196.5122  189.4100  159.7528 H   0  0  0  0  0  0  0  0  0  0  0  0
  198.1338  187.3222  158.0968 H   0  0  0  0  0  0  0  0  0  0  0  0
  196.7729  188.3213  157.5799 H   0  0  0  0  0  0  0  0  0  0  0  0
  196.6802  186.5761  157.4267 H   0  0  0  0  0  0  0  0  0  0  0  0
  198.8047  179.4321  157.2084 H   0  0  0  0  0  0  0  0  0  0  0  0
  195.4611  187.3266  159.3055 H   0  0  0  0  0  0  0  0  0  0  0  0
  1  2  1  0
  2  3  1  0
  2 30  2  0
  3  4  1  0
  4  5  1  0
  4 17  2  0
  5  6  2  0
  5  7  1  0
  7  8  1  0
  7 31  1  0
  8  9  1  0
  8 11  1  0
  8 32  1  1
  9 10  3  0
 10 33  1  0
 11 12  2  0
 11 16  1  0
 12 13  1  0
 12 34  1  0
 13 14  2  0
 13 35  1  0
 14 15  1  0
 14 36  1  0
 15 16  2  0
 15 37  1  0
 16 38  1  0
 17 18  1  0
 17 30  1  0
 18 19  1  0
 18 39  1  0
 19 20  1  0
 19 40  1  0
 19 41  1  0
 20 21  2  0
 20 25  1  0
 21 22  1  0
 21 42  1  0
 22 23  2  0
 22 26  1  0
 23 24  1  0
 23 43  1  0
 24 25  2  0
 24 44  1  0
 25 45  1  0
 26 27  1  0
 26 46  1  0
 26 47  1  0
 27 28  1  0
 27 29  1  0
 27 55  1  0
 28 48  1  0
 28 49  1  0
 28 50  1  0
 29 51  1  0
 29 52  1  0
 29 53  1  0
 30 54  1  0
M  CHG  1  27   1
M  END
>  <s_epik_cmdline>  (53) 
J2VwaWtfcHl0aG9uJywgJy1waCcsICc3LjAwMDAwMCcsICctcGh0JywgJzIuMDAwMDAwJywgJy1tcycsICcxNicsICctdG4nLCAnOCcsICctbWEnLCAnMjAwJywgJy1pbWFlJywgJzxpbmZpbGUubWFlPicsICctb21hZScsICc8b3V0ZmlsZS5tYWU+Jw==

>  <s_epik_input>  (53) 
W2NIXTFbY0hdW2NIXWMoW0NIMl1OKFtDSDNdKVtDSDNdKVtjSF1jMVtDSDJdW05IXWMoW2NIXTIpYyhzYzJDbClDKD1PKVtOSF1bQ0BIXShDI1tDSF0pYzNbY0hdW2NIXVtjSF1bY0hdW2NIXTM=

>  <s_i_glide_gridfile>  (53) 
ATP-Grid

>  <s_lp_Force_Field>  (53) 
OPLS_2005

>  <s_lp_Variant>  (53) 
rxn512b____EMOL50241152____EMOL49851977____EMOL2873214-1

>  <s_lp_label>  (53) 
2655_sdstereoexpander_1_neutralizer_1_epik_1_stereoizer_1

>  <s_m_source_file>  (53) 
ATP-VSW-LIGPREP-003-in.maegz

>  <s_sd_BIOSOLVEIT.INFINISEE\_QUERY\_NAME>  (53) 
Ref-Lig

>  <s_sd_BIOSOLVEIT.INFINISEE\_QUERY\_SMILES>  (53) 
S(c1nc2c(cc1C[NH2+]Cc3ccc(cc3)C[NH+](C)C)cccc2)Cc4ccccc4

>  <s_sd_BIOSOLVEIT.INFINISEE\_REACTION\_NAME>  (53) 
rxn512b

>  <s_sd_BIOSOLVEIT.INFINISEE\_REAGENT1\_NAME>  (53) 
EMOL50241152

>  <s_sd_BIOSOLVEIT.INFINISEE\_REAGENT1\_SMILES>  (53) 
NC(C#C)c1ccccc1

>  <s_sd_BIOSOLVEIT.INFINISEE\_REAGENT2\_NAME>  (53) 
EMOL49851977

>  <s_sd_BIOSOLVEIT.INFINISEE\_REAGENT2\_SMILES>  (53) 
BrC1=C(SC(Cl)=C1)C(=O)O

>  <s_sd_BIOSOLVEIT.INFINISEE\_REAGENT3\_NAME>  (53) 
EMOL2873214

>  <s_sd_BIOSOLVEIT.INFINISEE\_REAGENT3\_SMILES>  (53) 
N(Cc1cc(ccc1)CN)(C)C

>  <s_sd_BIOSOLVEIT.INFINISEE\_SPACE>  (53) 
eXplore_7tr_2022-12

>  <s_vsw_compound_code>  (53) 
84931

>  <s_vsw_variant>  (53) 
84931-1

>  <r_epik_Charging_Adjusted_Penalty>  (53) 
0.086140609825027206

>  <r_epik_Ionization_Penalty>  (53) 
0.043099999999999999

>  <r_epik_Ionization_Penalty_Charging>  (53) 
0.043099999999999999

>  <r_epik_Ionization_Penalty_Neutral>  (53) 
0.0001

>  <r_epik_State_Penalty>  (53) 
0.043099999999999999

>  <r_i_docking_score>  (53) 
-3.9678935903791501

>  <r_i_glide_ecoul>  (53) 
-2.4331970214843799

>  <r_i_glide_eff_state_penalty>  (53) 
0.043099999999999999

>  <r_i_glide_einternal>  (53) 
4.3866505622863796

>  <r_i_glide_emodel>  (53) 
-56.2205361315999

>  <r_i_glide_energy>  (53) 
-42.917873382568402

>  <r_i_glide_erotb>  (53) 
0.82835110067554896

>  <r_i_glide_esite>  (53) 
-0.057871607482735302

>  <r_i_glide_evdw>  (53) 
-40.484676361083999

>  <r_i_glide_gscore>  (53) 
-4.01099359037915

>  <r_i_glide_hbond>  (53) 
0

>  <r_i_glide_ligand_efficiency>  (53) 
-0.13226311967930501

>  <r_i_glide_ligand_efficiency_ln>  (53) 
-0.90154865739755496

>  <r_i_glide_ligand_efficiency_sa>  (53) 
-0.41097226434047002

>  <r_i_glide_lipo>  (53) 
-1.9763063032042001

>  <r_i_glide_metal>  (53) 
-0

>  <r_i_glide_rewards>  (53) 
-0.415953409090908

>  <r_lp_Energy>  (53) 
14.245495

>  <r_lp_tautomer_probability>  (53) 
0.99999274205267796

>  <r_qp_ACxDN^.5/SA>  (53) 
0.0081747999999999994

>  <r_qp_CIQPlogS>  (53) 
-5.2089999999999996

>  <r_qp_EA(eV)>  (53) 
0.72999999999999998

>  <r_qp_FISA>  (53) 
36.585999999999999

>  <r_qp_FOSA>  (53) 
199.68899999999999

>  <r_qp_IP(eV)>  (53) 
8.5980000000000008

>  <r_qp_Jm>  (53) 
0.010049043821447799

>  <r_qp_PISA>  (53) 
338.98599999999999

>  <r_qp_PSA>  (53) 
48.786999999999999

>  <r_qp_PercentHumanOralAbsorption>  (53) 
100

>  <r_qp_QPPCaco>  (53) 
277.17500000000001

>  <r_qp_QPPMDCK>  (53) 
526.86699999999996

>  <r_qp_QPlogBB>  (53) 
0.72699999999999998

>  <r_qp_QPlogHERG>  (53) 
-6.952

>  <r_qp_QPlogKhsa>  (53) 
0.88500000000000001

>  <r_qp_QPlogKp>  (53) 
-4.2610000000000001

>  <r_qp_QPlogPC16>  (53) 
13.958

>  <r_qp_QPlogPo/w>  (53) 
4.9690000000000003

>  <r_qp_QPlogPoct>  (53) 
19.221

>  <r_qp_QPlogPw>  (53) 
8.5749999999999993

>  <r_qp_QPlogS>  (53) 
-3.379

>  <r_qp_QPpolrz>  (53) 
43.356000000000002

>  <r_qp_SASA>  (53) 
674.18600000000004

>  <r_qp_SAamideO>  (53) 
0

>  <r_qp_SAfluorine>  (53) 
0

>  <r_qp_WPSA>  (53) 
98.924000000000007

>  <r_qp_accptHB>  (53) 
4.5

>  <r_qp_dip^2/V>  (53) 
0.0045794

>  <r_qp_dipole>  (53) 
2.4409999999999998

>  <r_qp_donorHB>  (53) 
1.5

>  <r_qp_glob>  (53) 
0.85471739999999996

>  <r_qp_mol_MW>  (53) 
437.98599999999999

>  <r_qp_volume>  (53) 
1300.636

>  <r_sd_BIOSOLVEIT.INFINISEE\_FTREES\_SIMILARITY>  (53) 
0.91000000000000003

>  <r_sd_BIOSOLVEIT.LOGP>  (53) 
3.7624

>  <r_sd_BIOSOLVEIT.TPSA>  (53) 
45.57

>  <i_epik_Tot_Q>  (53) 
1

>  <i_epik_Tot_abs_Q>  (53) 
1

>  <i_f3d_flags>  (53) 
0

>  <i_i_glide_confnum>  (53) 
9

>  <i_i_glide_lignum>  (53) 
1237

>  <i_i_glide_posenum>  (53) 
12

>  <i_i_glide_rotatable_bonds>  (53) 
10

>  <i_lp_mmshare_version>  (53) 
65135

>  <i_m_ct_format>  (53) 
2

>  <i_m_source_file_index>  (53) 
2655

>  <i_qp_#NandO>  (53) 
4

>  <i_qp_#acid>  (53) 
0

>  <i_qp_#amide>  (53) 
0

>  <i_qp_#amidine>  (53) 
0

>  <i_qp_#amine>  (53) 
2

>  <i_qp_#in34>  (53) 
0

>  <i_qp_#in56>  (53) 
17

>  <i_qp_#metab>  (53) 
7

>  <i_qp_#nonHatm>  (53) 
30

>  <i_qp_#noncon>  (53) 
0

>  <i_qp_#ringatoms>  (53) 
17

>  <i_qp_#rotor>  (53) 
9

>  <i_qp_#rtvFG>  (53) 
0

>  <i_qp_#stars>  (53) 
0

>  <i_qp_CNS>  (53) 
2

>  <i_qp_HumanOralAbsorption>  (53) 
3

>  <i_qp_RuleOfFive>  (53) 
0

>  <i_qp_RuleOfThree>  (53) 
1

>  <i_sd_BIOSOLVEIT.INFINISEE\_RESULT\_RANK>  (53) 
47046

>  <i_sd_BIOSOLVEIT.MOLECULAR\_WEIGHT>  (53) 
439

>  <i_sd_version>  (53) 
0

>  <b_lp_Chiralities_Consistent>  (53) 
1

>  <b_sd_chiral_flag>  (53) 
0

>  <canonical_id>  (53) 
ATP-HTVS-4E652792F62F

>  <compound_code>  (53) 
84931

>  <title>  (53) 
rxn512b____EMOL50241152____EMOL49851977____EMOL2873214

>  <variant>  (53) 
84931-1

>  <source_file>  (53) 
运行/运行/ATP-VSW/ATP-VSW-DOCK_HTVS_1-003_lib/ATP-VSW-DOCK_HTVS_1-003_lib.mae

>  <canonical_smiles>  (53) 
C#C[C@@H](NC(=O)c1sc(Cl)cc1NCc1cccc(C[NH+](C)C)c1)c1ccccc1

>  <scaffold>  (53) 
O=C(NCc1ccccc1)c1sccc1NCc1ccccc1

>  <molecular_formula>  (53) 
C24H25ClN3OS+

>  <acquisition_id_v2>  (53) 
ATP-ACQ2-0053

>  <selection_arm_v2>  (53) 
local_structure_bridge

>  <priority_v2>  (53) 
P1

$$$$
ATP-ACQ2-0054
     RDKit          3D

 49 52  0  0  0  0  0  0  0  0999 V2000
  200.1668  180.1073  156.8499 O   0  0  0  0  0  0  0  0  0  0  0  0
  199.0402  180.3534  156.3699 C   0  0  0  0  0  0  0  0  0  0  0  0
  198.4739  179.6555  155.3520 N   0  0  0  0  0  0  0  0  0  0  0  0
  199.1893  178.6405  154.6630 C   0  0  0  0  0  0  0  0  0  0  0  0
  199.7234  177.5206  155.3515 C   0  0  0  0  0  0  0  0  0  0  0  0
  200.3685  176.4970  154.6362 C   0  0  0  0  0  0  0  0  0  0  0  0
  200.4817  176.5647  153.2378 C   0  0  0  0  0  0  0  0  0  0  0  0
  199.9490  177.6683  152.5452 C   0  0  0  0  0  0  0  0  0  0  0  0
  199.3095  178.7024  153.2574 C   0  0  0  0  0  0  0  0  0  0  0  0
  197.1212  179.9831  154.8588 C   0  0  0  0  0  0  0  0  0  0  0  0
  198.3220  181.5506  156.8964 C   0  0  0  0  0  0  0  0  0  0  0  0
  197.0961  181.4340  157.4729 N   0  0  0  0  0  0  0  0  0  0  0  0
  196.3906  182.4760  157.9385 C   0  0  0  0  0  0  0  0  0  0  0  0
  196.9466  183.7775  157.9201 C   0  0  0  0  0  0  0  0  0  0  0  0
  198.2480  183.9562  157.3736 C   0  0  0  0  0  0  0  0  0  0  0  0
  198.8618  185.1817  157.3730 O   0  0  0  0  0  0  0  0  0  0  0  0
  199.7749  185.4456  158.3757 C   0  0  0  0  0  0  0  0  0  0  0  0
  199.9963  186.7947  158.7424 C   0  0  0  0  0  0  0  0  0  0  0  0
  200.9483  187.1234  159.7377 C   0  0  0  0  0  0  0  0  0  0  0  0
  201.6682  186.0936  160.3781 C   0  0  0  0  0  0  0  0  0  0  0  0
  201.4551  184.7567  160.0183 C   0  0  0  0  0  0  0  0  0  0  0  0
  200.5103  184.4286  159.0343 C   0  0  0  0  0  0  0  0  0  0  0  0
  202.6773  186.4061  161.4629 C   0  0  0  0  0  0  0  0  0  0  0  0
  198.9142  182.8350  156.8421 C   0  0  0  0  0  0  0  0  0  0  0  0
  196.2056  184.8508  158.4526 C   0  0  0  0  0  0  0  0  0  0  0  0
  194.9177  184.6158  158.9685 C   0  0  0  0  0  0  0  0  0  0  0  0
  194.3542  183.3270  158.9408 C   0  0  0  0  0  0  0  0  0  0  0  0
  195.1081  182.2356  158.4696 C   0  0  0  0  0  0  0  0  0  0  0  0
  199.6160  177.4415  156.4232 H   0  0  0  0  0  0  0  0  0  0  0  0
  200.7584  175.6428  155.1686 H   0  0  0  0  0  0  0  0  0  0  0  0
  200.9610  175.7691  152.6944 H   0  0  0  0  0  0  0  0  0  0  0  0
  200.0263  177.7125  151.4652 H   0  0  0  0  0  0  0  0  0  0  0  0
  198.8961  179.5372  152.7026 H   0  0  0  0  0  0  0  0  0  0  0  0
  196.8530  179.4501  153.9516 H   0  0  0  0  0  0  0  0  0  0  0  0
  196.9872  181.0393  154.6565 H   0  0  0  0  0  0  0  0  0  0  0  0
  196.4069  179.6699  155.5947 H   0  0  0  0  0  0  0  0  0  0  0  0
  199.4510  187.5937  158.2558 H   0  0  0  0  0  0  0  0  0  0  0  0
  201.1052  188.1590  160.0163 H   0  0  0  0  0  0  0  0  0  0  0  0
  202.0070  183.9651  160.4959 H   0  0  0  0  0  0  0  0  0  0  0  0
  200.4220  183.3752  158.8228 H   0  0  0  0  0  0  0  0  0  0  0  0
  202.7891  185.5405  162.1261 H   0  0  0  0  0  0  0  0  0  0  0  0
  202.3560  187.2628  162.0660 H   0  0  0  0  0  0  0  0  0  0  0  0
  203.6512  186.6220  161.0104 H   0  0  0  0  0  0  0  0  0  0  0  0
  199.8925  182.9435  156.3794 H   0  0  0  0  0  0  0  0  0  0  0  0
  196.6120  185.8443  158.4478 H   0  0  0  0  0  0  0  0  0  0  0  0
  194.3420  185.4365  159.3491 H   0  0  0  0  0  0  0  0  0  0  0  0
  193.3460  183.1652  159.2931 H   0  0  0  0  0  0  0  0  0  0  0  0
  194.6960  181.2361  158.4501 H   0  0  0  0  0  0  0  0  0  0  0  0
  196.6560  180.5027  157.5685 H   0  0  0  0  0  0  0  0  0  0  0  0
  1  2  2  0
  2  3  1  0
  2 11  1  0
  3  4  1  0
  3 10  1  0
  4  5  2  0
  4  9  1  0
  5  6  1  0
  5 29  1  0
  6  7  2  0
  6 30  1  0
  7  8  1  0
  7 31  1  0
  8  9  2  0
  8 32  1  0
  9 33  1  0
 10 34  1  0
 10 35  1  0
 10 36  1  0
 11 12  2  0
 11 24  1  0
 12 13  1  0
 12 49  1  0
 13 14  1  0
 13 28  2  0
 14 15  1  0
 14 25  2  0
 15 16  1  0
 15 24  2  0
 16 17  1  0
 17 18  1  0
 17 22  2  0
 18 19  2  0
 18 37  1  0
 19 20  1  0
 19 38  1  0
 20 21  2  0
 20 23  1  0
 21 22  1  0
 21 39  1  0
 22 40  1  0
 23 41  1  0
 23 42  1  0
 23 43  1  0
 24 44  1  0
 25 26  1  0
 25 45  1  0
 26 27  2  0
 26 46  1  0
 27 28  1  0
 27 47  1  0
 28 48  1  0
M  CHG  1  12   1
M  END
>  <s_epik_cmdline>  (54) 
J2VwaWtfcHl0aG9uJywgJy1waCcsICc3LjAwMDAwMCcsICctcGh0JywgJzIuMDAwMDAwJywgJy1tcycsICcxNicsICctdG4nLCAnOCcsICctbWEnLCAnMjAwJywgJy1pbWFlJywgJzxpbmZpbGUubWFlPicsICctb21hZScsICc8b3V0ZmlsZS5tYWU+Jw==

>  <s_epik_input>  (54) 
W2NIXTFbY0hdW2NIXVtjSF1bY0hdYzFOKFtDSDNdKUMoPU8pYyhuMilbY0hdYyhjKGMyMylbY0hdW2NIXVtjSF1bY0hdMylPYzRbY0hdW2NIXWMoW0NIM10pW2NIXVtjSF00

>  <s_i_glide_gridfile>  (54) 
ATP-Grid

>  <s_lp_Force_Field>  (54) 
OPLS_2005

>  <s_lp_Variant>  (54) 
a1____51052____400834-2

>  <s_lp_label>  (54) 
446_sdstereoexpander_1_neutralizer_1_epik_2_stereoizer_1

>  <s_m_source_file>  (54) 
ATP-VSW-LIGPREP-003-in.maegz

>  <s_sd_BIOSOLVEIT.INFINISEE\_QUERY\_NAME>  (54) 
Ref-Lig

>  <s_sd_BIOSOLVEIT.INFINISEE\_QUERY\_SMILES>  (54) 
S(c1nc2c(cc1C[NH2+]Cc3ccc(cc3)C[NH+](C)C)cccc2)Cc4ccccc4

>  <s_sd_BIOSOLVEIT.INFINISEE\_REACTION\_NAME>  (54) 
a1

>  <s_sd_BIOSOLVEIT.INFINISEE\_REAGENT1\_SMILES>  (54) 
[R1*]N(c1ccccc1)C

>  <s_sd_BIOSOLVEIT.INFINISEE\_REAGENT2\_SMILES>  (54) 
[R1*]C(=O)c1nc2c(c(Oc3ccc(cc3)C)c1)cccc2

>  <s_sd_BIOSOLVEIT.INFINISEE\_SPACE>  (54) 
FreedomSpace_5bn_2023-06

>  <s_vsw_compound_code>  (54) 
14243

>  <s_vsw_variant>  (54) 
14243-2

>  <r_epik_Charging_Adjusted_Penalty>  (54) 
1.4703333805084799

>  <r_epik_Ionization_Penalty>  (54) 
0.73519999999999996

>  <r_epik_Ionization_Penalty_Charging>  (54) 
0.73519999999999996

>  <r_epik_Ionization_Penalty_Neutral>  (54) 
0

>  <r_epik_State_Penalty>  (54) 
0.73519999999999996

>  <r_i_docking_score>  (54) 
-3.6253229383866601

>  <r_i_glide_ecoul>  (54) 
-8.17736911773682

>  <r_i_glide_eff_state_penalty>  (54) 
0.73519999999999996

>  <r_i_glide_einternal>  (54) 
7.6476392745971697

>  <r_i_glide_emodel>  (54) 
-47.679065713824897

>  <r_i_glide_energy>  (54) 
-36.839856147766099

>  <r_i_glide_erotb>  (54) 
0.70635175722167798

>  <r_i_glide_esite>  (54) 
-0.210640452588892

>  <r_i_glide_evdw>  (54) 
-28.6624870300293

>  <r_i_glide_gscore>  (54) 
-4.3605229383866604

>  <r_i_glide_hbond>  (54) 
-0.20000000000000001

>  <r_i_glide_ligand_efficiency>  (54) 
-0.12947581922809501

>  <r_i_glide_ligand_efficiency_ln>  (54) 
-0.83683097828639696

>  <r_i_glide_ligand_efficiency_sa>  (54) 
-0.39316484435589799

>  <r_i_glide_lipo>  (54) 
-0.88129366022109501

>  <r_i_glide_metal>  (54) 
-0

>  <r_i_glide_rewards>  (54) 
-1.11521086363636

>  <r_lp_Energy>  (54) 
41.937814000000003

>  <r_lp_tautomer_probability>  (54) 
1

>  <r_qp_ACxDN^.5/SA>  (54) 
0

>  <r_qp_CIQPlogS>  (54) 
-6.1289999999999996

>  <r_qp_EA(eV)>  (54) 
1.0529999999999999

>  <r_qp_FISA>  (54) 
50.488

>  <r_qp_FOSA>  (54) 
147.47399999999999

>  <r_qp_IP(eV)>  (54) 
8.9209999999999994

>  <r_qp_Jm>  (54) 
2.6042895929375698

>  <r_qp_PISA>  (54) 
396.928

>  <r_qp_PSA>  (54) 
46.762

>  <r_qp_PercentHumanOralAbsorption>  (54) 
100

>  <r_qp_QPPCaco>  (54) 
3289.4279999999999

>  <r_qp_QPPMDCK>  (54) 
1791.827

>  <r_qp_QPlogBB>  (54) 
-0.11

>  <r_qp_QPlogHERG>  (54) 
-5.335

>  <r_qp_QPlogKhsa>  (54) 
0.52500000000000002

>  <r_qp_QPlogKp>  (54) 
-0.66800000000000004

>  <r_qp_QPlogPC16>  (54) 
11.959

>  <r_qp_QPlogPo/w>  (54) 
4.5910000000000002

>  <r_qp_QPlogPoct>  (54) 
16.446000000000002

>  <r_qp_QPlogPw>  (54) 
7.7439999999999998

>  <r_qp_QPlogS>  (54) 
-4.4829999999999997

>  <r_qp_QPpolrz>  (54) 
40.292999999999999

>  <r_qp_SASA>  (54) 
594.88999999999999

>  <r_qp_SAamideO>  (54) 
0

>  <r_qp_SAfluorine>  (54) 
0

>  <r_qp_WPSA>  (54) 
0

>  <r_qp_accptHB>  (54) 
4.5

>  <r_qp_dip^2/V>  (54) 
0.0493648

>  <r_qp_dipole>  (54) 
7.4690000000000003

>  <r_qp_donorHB>  (54) 
0

>  <r_qp_glob>  (54) 
0.88197919999999996

>  <r_qp_mol_MW>  (54) 
368.43400000000003

>  <r_qp_volume>  (54) 
1130.0440000000001

>  <r_sd_BIOSOLVEIT.INFINISEE\_FTREES\_SIMILARITY>  (54) 
0.90700000000000003

>  <r_sd_BIOSOLVEIT.LOGP>  (54) 
5.61212

>  <r_sd_BIOSOLVEIT.MOLECULAR\_WEIGHT>  (54) 
368.43400000000003

>  <r_sd_BIOSOLVEIT.TPSA>  (54) 
42.43

>  <i_epik_Tot_Q>  (54) 
1

>  <i_epik_Tot_abs_Q>  (54) 
1

>  <i_f3d_flags>  (54) 
0

>  <i_i_glide_confnum>  (54) 
3

>  <i_i_glide_lignum>  (54) 
238

>  <i_i_glide_posenum>  (54) 
17

>  <i_i_glide_rotatable_bonds>  (54) 
5

>  <i_lp_mmshare_version>  (54) 
65135

>  <i_m_ct_format>  (54) 
2

>  <i_m_source_file_index>  (54) 
446

>  <i_qp_#NandO>  (54) 
4

>  <i_qp_#acid>  (54) 
0

>  <i_qp_#amide>  (54) 
0

>  <i_qp_#amidine>  (54) 
0

>  <i_qp_#amine>  (54) 
0

>  <i_qp_#in34>  (54) 
0

>  <i_qp_#in56>  (54) 
22

>  <i_qp_#metab>  (54) 
2

>  <i_qp_#nonHatm>  (54) 
28

>  <i_qp_#noncon>  (54) 
0

>  <i_qp_#ringatoms>  (54) 
22

>  <i_qp_#rotor>  (54) 
4

>  <i_qp_#rtvFG>  (54) 
0

>  <i_qp_#stars>  (54) 
0

>  <i_qp_CNS>  (54) 
0

>  <i_qp_HumanOralAbsorption>  (54) 
3

>  <i_qp_RuleOfFive>  (54) 
0

>  <i_qp_RuleOfThree>  (54) 
0

>  <i_sd_BIOSOLVEIT.INFINISEE\_REAGENT1\_NAME>  (54) 
51052

>  <i_sd_BIOSOLVEIT.INFINISEE\_REAGENT2\_NAME>  (54) 
400834

>  <i_sd_BIOSOLVEIT.INFINISEE\_RESULT\_RANK>  (54) 
61367

>  <i_sd_version>  (54) 
0

>  <b_lp_Chiralities_Consistent>  (54) 
1

>  <b_sd_chiral_flag>  (54) 
0

>  <canonical_id>  (54) 
ATP-HTVS-542A37ED863C

>  <compound_code>  (54) 
14243

>  <title>  (54) 
a1____51052____400834

>  <variant>  (54) 
14243-2

>  <source_file>  (54) 
运行/运行/ATP-VSW/ATP-VSW-DOCK_HTVS_1-003_lib/ATP-VSW-DOCK_HTVS_1-003_lib.mae

>  <canonical_smiles>  (54) 
Cc1ccc(Oc2cc(C(=O)N(C)c3ccccc3)[nH+]c3ccccc23)cc1

>  <scaffold>  (54) 
O=C(Nc1ccccc1)c1cc(Oc2ccccc2)c2ccccc2[nH+]1

>  <molecular_formula>  (54) 
C24H21N2O2+

>  <acquisition_id_v2>  (54) 
ATP-ACQ2-0054

>  <selection_arm_v2>  (54) 
scaffold_score_exploration

>  <priority_v2>  (54) 
P1

$$$$
ATP-ACQ2-0055
     RDKit          3D

 47 50  0  0  0  0  0  0  0  0999 V2000
  198.0121  185.3167  157.7507 Cl  0  0  0  0  0  0  0  0  0  0  0  0
  196.8078  185.5840  158.9577 C   0  0  0  0  0  0  0  0  0  0  0  0
  195.6875  184.7225  159.0941 C   0  0  0  0  0  0  0  0  0  0  0  0
  194.7236  185.0150  160.0860 C   0  0  0  0  0  0  0  0  0  0  0  0
  194.8747  186.1373  160.9277 C   0  0  0  0  0  0  0  0  0  0  0  0
  195.9963  186.9814  160.7894 C   0  0  0  0  0  0  0  0  0  0  0  0
  196.9554  186.6966  159.8064 C   0  0  0  0  0  0  0  0  0  0  0  0
  195.5264  183.5059  158.1733 C   0  0  2  0  0  0  0  0  0  0  0  0
  194.2086  183.0049  158.1586 O   0  0  0  0  0  0  0  0  0  0  0  0
  196.4765  182.3426  158.5331 C   0  0  0  0  0  0  0  0  0  0  0  0
  196.6618  181.4379  157.3818 N   0  0  0  0  0  0  0  0  0  0  0  0
  197.6553  181.8863  156.3713 C   0  0  1  0  0  0  0  0  0  0  0  0
  199.0621  181.4984  156.8064 C   0  0  0  0  0  0  0  0  0  0  0  0
  199.8989  182.5147  157.1345 N   0  0  0  0  0  0  0  0  0  0  0  0
  201.1514  182.2036  157.5264 C   0  0  0  0  0  0  0  0  0  0  0  0
  201.6355  180.8831  157.6033 C   0  0  0  0  0  0  0  0  0  0  0  0
  200.7640  179.8279  157.2641 C   0  0  0  0  0  0  0  0  0  0  0  0
  199.4517  180.1431  156.8549 C   0  0  0  0  0  0  0  0  0  0  0  0
  197.3219  181.3870  155.0077 C   0  0  0  0  0  0  0  0  0  0  0  0
  197.4587  182.2794  153.9761 O   0  0  0  0  0  0  0  0  0  0  0  0
  197.1248  181.6042  152.8246 C   0  0  0  0  0  0  0  0  0  0  0  0
  196.7720  180.2697  153.1491 C   0  0  0  0  0  0  0  0  0  0  0  0
  196.4042  179.4288  152.0773 C   0  0  0  0  0  0  0  0  0  0  0  0
  196.3975  179.9025  150.7489 C   0  0  0  0  0  0  0  0  0  0  0  0
  196.7591  181.2368  150.4629 C   0  0  0  0  0  0  0  0  0  0  0  0
  197.1288  182.1010  151.5127 C   0  0  0  0  0  0  0  0  0  0  0  0
  196.9108  180.1520  154.5739 C   0  0  0  0  0  0  0  0  0  0  0  0
  196.9106  180.5089  157.7077 H   0  0  0  0  0  0  0  0  0  0  0  0
  193.8509  184.3872  160.2119 H   0  0  0  0  0  0  0  0  0  0  0  0
  194.1404  186.3554  161.6875 H   0  0  0  0  0  0  0  0  0  0  0  0
  196.1311  187.8328  161.4397 H   0  0  0  0  0  0  0  0  0  0  0  0
  197.8240  187.3323  159.6990 H   0  0  0  0  0  0  0  0  0  0  0  0
  195.7340  183.8391  157.1552 H   0  0  0  0  0  0  0  0  0  0  0  0
  193.9391  182.9123  157.2236 H   0  0  0  0  0  0  0  0  0  0  0  0
  197.4435  182.7145  158.8686 H   0  0  0  0  0  0  0  0  0  0  0  0
  196.0468  181.7903  159.3691 H   0  0  0  0  0  0  0  0  0  0  0  0
  197.6211  182.9795  156.3115 H   0  0  0  0  0  0  0  0  0  0  0  0
  201.7911  183.0393  157.7755 H   0  0  0  0  0  0  0  0  0  0  0  0
  202.6475  180.6823  157.9219 H   0  0  0  0  0  0  0  0  0  0  0  0
  201.0905  178.7996  157.3320 H   0  0  0  0  0  0  0  0  0  0  0  0
  198.7641  179.3445  156.6205 H   0  0  0  0  0  0  0  0  0  0  0  0
  196.1347  178.4061  152.2863 H   0  0  0  0  0  0  0  0  0  0  0  0
  196.1206  179.2393  149.9418 H   0  0  0  0  0  0  0  0  0  0  0  0
  196.7571  181.5876  149.4426 H   0  0  0  0  0  0  0  0  0  0  0  0
  197.4139  183.1224  151.3091 H   0  0  0  0  0  0  0  0  0  0  0  0
  196.7280  179.2656  155.1669 H   0  0  0  0  0  0  0  0  0  0  0  0
  195.7704  181.3155  156.9285 H   0  0  0  0  0  0  0  0  0  0  0  0
  1  2  1  0
  2  3  1  0
  2  7  2  0
  3  4  2  0
  3  8  1  0
  4  5  1  0
  4 29  1  0
  5  6  2  0
  5 30  1  0
  6  7  1  0
  6 31  1  0
  7 32  1  0
  8  9  1  0
  8 10  1  0
  8 33  1  6
  9 34  1  0
 10 11  1  0
 10 35  1  0
 10 36  1  0
 11 12  1  0
 11 28  1  0
 11 47  1  0
 12 13  1  0
 12 19  1  0
 12 37  1  6
 13 14  1  0
 13 18  2  0
 14 15  2  0
 15 16  1  0
 15 38  1  0
 16 17  2  0
 16 39  1  0
 17 18  1  0
 17 40  1  0
 18 41  1  0
 19 20  1  0
 19 27  2  0
 20 21  1  0
 21 22  1  0
 21 26  2  0
 22 23  2  0
 22 27  1  0
 23 24  1  0
 23 42  1  0
 24 25  2  0
 24 43  1  0
 25 26  1  0
 25 44  1  0
 26 45  1  0
 27 46  1  0
M  CHG  1  11   1
M  END
>  <s_epik_cmdline>  (55) 
J2VwaWtfcHl0aG9uJywgJy1waCcsICc3LjAwMDAwMCcsICctcGh0JywgJzIuMDAwMDAwJywgJy1tcycsICcxNicsICctdG4nLCAnOCcsICctbWEnLCAnMjAwJywgJy1pbWFlJywgJzxpbmZpbGUubWFlPicsICctb21hZScsICc8b3V0ZmlsZS5tYWU+Jw==

>  <s_epik_input>  (55) 
W2NIXTFbY0hdW2NIXVtjSF1jKGMxQ2wpW0NASF0oW09IXSlbQ0gyXVtOSF1bQ0BASF0oYzJuW2NIXVtjSF1bY0hdW2NIXTIpYyhvMylbY0hdYyhjMzQpW2NIXVtjSF1bY0hdW2NIXTQ=

>  <s_i_glide_gridfile>  (55) 
ATP-Grid

>  <s_lp_Force_Field>  (55) 
OPLS_2005

>  <s_lp_Variant>  (55) 
m_269862dba____8258832____13192834-4

>  <s_lp_label>  (55) 
1077_sdstereoexpander_4_neutralizer_1_epik_1_stereoizer_1

>  <s_m_source_file>  (55) 
ATP-VSW-LIGPREP-003-in.maegz

>  <s_sd_BIOSOLVEIT.INFINISEE\_QUERY\_NAME>  (55) 
Ref-Lig

>  <s_sd_BIOSOLVEIT.INFINISEE\_QUERY\_SMILES>  (55) 
S(c1nc2c(cc1C[NH2+]Cc3ccc(cc3)C[NH+](C)C)cccc2)Cc4ccccc4

>  <s_sd_BIOSOLVEIT.INFINISEE\_REACTION\_NAME>  (55) 
m_269862dba

>  <s_sd_BIOSOLVEIT.INFINISEE\_REAGENT1\_SMILES>  (55) 
[R1*]NCC(O)c1c(Cl)cccc1

>  <s_sd_BIOSOLVEIT.INFINISEE\_REAGENT2\_SMILES>  (55) 
[R1*]C(c1ncccc1)C=2Oc3c(cccc3)C2

>  <s_sd_BIOSOLVEIT.INFINISEE\_SPACE>  (55) 
REALSpace_44bn_2023-08

>  <s_vsw_compound_code>  (55) 
34435

>  <s_vsw_variant>  (55) 
34435-4

>  <r_epik_Charging_Adjusted_Penalty>  (55) 
0.12574514795471001

>  <r_epik_Ionization_Penalty>  (55) 
0.062899999999999998

>  <r_epik_Ionization_Penalty_Charging>  (55) 
0.062899999999999998

>  <r_epik_Ionization_Penalty_Neutral>  (55) 
0

>  <r_epik_State_Penalty>  (55) 
0.062899999999999998

>  <r_i_docking_score>  (55) 
-6.2552108570632301

>  <r_i_glide_ecoul>  (55) 
-13.7310228347778

>  <r_i_glide_eff_state_penalty>  (55) 
0.062899999999999998

>  <r_i_glide_einternal>  (55) 
5.2208538055419904

>  <r_i_glide_emodel>  (55) 
-70.147561068306203

>  <r_i_glide_energy>  (55) 
-45.928265571594203

>  <r_i_glide_erotb>  (55) 
0.67204726597247899

>  <r_i_glide_esite>  (55) 
-0.10000000000000001

>  <r_i_glide_evdw>  (55) 
-32.197242736816399

>  <r_i_glide_gscore>  (55) 
-6.3181108570632301

>  <r_i_glide_hbond>  (55) 
-0.25280710849308402

>  <r_i_glide_ligand_efficiency>  (55) 
-0.23167447618752701

>  <r_i_glide_ligand_efficiency_ln>  (55) 
-1.45610996231367

>  <r_i_glide_ligand_efficiency_sa>  (55) 
-0.69502342779901904

>  <r_i_glide_lipo>  (55) 
-1.9236929524851301

>  <r_i_glide_metal>  (55) 
-0

>  <r_i_glide_rewards>  (55) 
-1.0441425

>  <r_lp_Energy>  (55) 
13.813374

>  <r_qp_ACxDN^.5/SA>  (55) 
0.0097193999999999996

>  <r_qp_CIQPlogS>  (55) 
-5.1680000000000001

>  <r_qp_EA(eV)>  (55) 
0.26800000000000002

>  <r_qp_FISA>  (55) 
46.103000000000002

>  <r_qp_FOSA>  (55) 
40.274000000000001

>  <r_qp_IP(eV)>  (55) 
8.8379999999999992

>  <r_qp_Jm>  (55) 
0.091964133163759204

>  <r_qp_PISA>  (55) 
542.29999999999995

>  <r_qp_PSA>  (55) 
49.508000000000003

>  <r_qp_PercentHumanOralAbsorption>  (55) 
100

>  <r_qp_QPPCaco>  (55) 
902.83100000000002

>  <r_qp_QPPMDCK>  (55) 
983.12199999999996

>  <r_qp_QPlogBB>  (55) 
0.191

>  <r_qp_QPlogHERG>  (55) 
-8.1359999999999992

>  <r_qp_QPlogKhsa>  (55) 
0.58599999999999997

>  <r_qp_QPlogKp>  (55) 
-1.849

>  <r_qp_QPlogPC16>  (55) 
14.343

>  <r_qp_QPlogPo/w>  (55) 
4.6360000000000001

>  <r_qp_QPlogPoct>  (55) 
19.648

>  <r_qp_QPlogPw>  (55) 
11.401

>  <r_qp_QPlogS>  (55) 
-4.766

>  <r_qp_QPpolrz>  (55) 
42.372999999999998

>  <r_qp_SASA>  (55) 
683.87300000000005

>  <r_qp_SAamideO>  (55) 
0

>  <r_qp_SAfluorine>  (55) 
0

>  <r_qp_WPSA>  (55) 
55.195999999999998

>  <r_qp_accptHB>  (55) 
4.7000000000000002

>  <r_qp_dip^2/V>  (55) 
0.0034703999999999998

>  <r_qp_dipole>  (55) 
2.0369999999999999

>  <r_qp_donorHB>  (55) 
2

>  <r_qp_glob>  (55) 
0.79655679999999995

>  <r_qp_mol_MW>  (55) 
378.85700000000003

>  <r_qp_volume>  (55) 
1195.4749999999999

>  <r_sd_BIOSOLVEIT.INFINISEE\_FTREES\_SIMILARITY>  (55) 
0.91400000000000003

>  <r_sd_BIOSOLVEIT.LOGP>  (55) 
3.8675999999999999

>  <r_sd_BIOSOLVEIT.MOLECULAR\_WEIGHT>  (55) 
379.86500000000001

>  <r_sd_BIOSOLVEIT.TPSA>  (55) 
62.869999999999997

>  <i_epik_Tot_Q>  (55) 
1

>  <i_epik_Tot_abs_Q>  (55) 
1

>  <i_f3d_flags>  (55) 
0

>  <i_i_glide_confnum>  (55) 
4

>  <i_i_glide_lignum>  (55) 
405

>  <i_i_glide_posenum>  (55) 
10

>  <i_i_glide_rotatable_bonds>  (55) 
7

>  <i_lp_mmshare_version>  (55) 
65135

>  <i_m_ct_format>  (55) 
2

>  <i_m_source_file_index>  (55) 
1077

>  <i_qp_#NandO>  (55) 
4

>  <i_qp_#acid>  (55) 
0

>  <i_qp_#amide>  (55) 
0

>  <i_qp_#amidine>  (55) 
0

>  <i_qp_#amine>  (55) 
1

>  <i_qp_#in34>  (55) 
0

>  <i_qp_#in56>  (55) 
21

>  <i_qp_#metab>  (55) 
7

>  <i_qp_#nonHatm>  (55) 
27

>  <i_qp_#noncon>  (55) 
0

>  <i_qp_#ringatoms>  (55) 
21

>  <i_qp_#rotor>  (55) 
7

>  <i_qp_#rtvFG>  (55) 
0

>  <i_qp_#stars>  (55) 
1

>  <i_qp_CNS>  (55) 
1

>  <i_qp_HumanOralAbsorption>  (55) 
3

>  <i_qp_RuleOfFive>  (55) 
0

>  <i_qp_RuleOfThree>  (55) 
1

>  <i_sd_BIOSOLVEIT.INFINISEE\_REAGENT1\_NAME>  (55) 
8258832

>  <i_sd_BIOSOLVEIT.INFINISEE\_REAGENT2\_NAME>  (55) 
13192834

>  <i_sd_BIOSOLVEIT.INFINISEE\_RESULT\_RANK>  (55) 
31740

>  <i_sd_version>  (55) 
0

>  <b_lp_Chiralities_Consistent>  (55) 
1

>  <b_sd_chiral_flag>  (55) 
0

>  <canonical_id>  (55) 
ATP-HTVS-F8BD3C119C5E

>  <compound_code>  (55) 
34435

>  <title>  (55) 
m_269862dba____8258832____13192834

>  <variant>  (55) 
34435-4

>  <source_file>  (55) 
运行/运行/ATP-VSW/ATP-VSW-DOCK_HTVS_1-003_lib/ATP-VSW-DOCK_HTVS_1-003_lib.mae

>  <canonical_smiles>  (55) 
O[C@H](C[NH2+][C@@H](c1ccccn1)c1cc2ccccc2o1)c1ccccc1Cl

>  <scaffold>  (55) 
c1ccc(CC[NH2+]C(c2ccccn2)c2cc3ccccc3o2)cc1

>  <molecular_formula>  (55) 
C22H20ClN2O2+

>  <acquisition_id_v2>  (55) 
ATP-ACQ2-0055

>  <selection_arm_v2>  (55) 
exploitation

>  <priority_v2>  (55) 
P1

$$$$
ATP-ACQ2-0056
     RDKit          3D

 53 55  0  0  0  0  0  0  0  0999 V2000
  199.1585  181.4135  153.7579 S   0  0  0  0  0  0  0  0  0  0  0  0
  197.9068  181.3123  154.9715 C   0  0  0  0  0  0  0  0  0  0  0  0
  198.0736  180.2047  155.7622 C   0  0  0  0  0  0  0  0  0  0  0  0
  199.2225  179.4415  155.4171 C   0  0  0  0  0  0  0  0  0  0  0  0
  199.5483  178.2810  156.1312 N   0  0  0  0  0  0  0  0  0  0  0  0
  200.9270  177.8268  156.2703 C   0  0  0  0  0  0  0  0  0  0  0  0
  201.2024  176.4841  155.6169 C   0  0  0  0  0  0  0  0  0  0  0  0
  200.7818  176.2345  154.2948 C   0  0  0  0  0  0  0  0  0  0  0  0
  201.0692  174.9981  153.6861 C   0  0  0  0  0  0  0  0  0  0  0  0
  201.7595  173.9988  154.4015 C   0  0  0  0  0  0  0  0  0  0  0  0
  202.1781  174.2532  155.7264 C   0  0  0  0  0  0  0  0  0  0  0  0
  201.9106  175.4944  156.3270 C   0  0  0  0  0  0  0  0  0  0  0  0
  202.0784  172.6656  153.7421 C   0  0  0  0  0  0  0  0  0  0  0  0
  203.4292  172.6383  153.1212 N   0  0  0  0  0  0  0  0  0  0  0  0
  203.5087  173.4069  151.8559 C   0  0  0  0  0  0  0  0  0  0  0  0
  204.5394  172.9856  154.0413 C   0  0  0  0  0  0  0  0  0  0  0  0
  199.9061  179.9614  154.3488 C   0  0  0  0  0  0  0  0  0  0  0  0
  196.8245  182.3400  155.0540 C   0  0  0  0  0  0  0  0  0  0  0  0
  197.1449  183.4061  156.1053 C   0  0  0  0  0  0  0  0  0  0  0  0
  198.0564  184.2035  155.8947 O   0  0  0  0  0  0  0  0  0  0  0  0
  196.3646  183.3995  157.2021 N   0  0  0  0  0  0  0  0  0  0  0  0
  196.3066  184.3330  158.2778 C   0  0  0  0  0  0  0  0  0  0  0  0
  195.1398  184.3203  159.0678 C   0  0  0  0  0  0  0  0  0  0  0  0
  194.9810  185.2320  160.1327 C   0  0  0  0  0  0  0  0  0  0  0  0
  195.9962  186.1624  160.4206 C   0  0  0  0  0  0  0  0  0  0  0  0
  197.1691  186.1775  159.6443 C   0  0  0  0  0  0  0  0  0  0  0  0
  197.3296  185.2687  158.5787 C   0  0  0  0  0  0  0  0  0  0  0  0
  197.4262  179.9288  156.5807 H   0  0  0  0  0  0  0  0  0  0  0  0
  198.8972  177.9967  156.8618 H   0  0  0  0  0  0  0  0  0  0  0  0
  201.6148  178.5541  155.8340 H   0  0  0  0  0  0  0  0  0  0  0  0
  201.1765  177.7816  157.3336 H   0  0  0  0  0  0  0  0  0  0  0  0
  200.2462  176.9906  153.7410 H   0  0  0  0  0  0  0  0  0  0  0  0
  200.7440  174.8151  152.6714 H   0  0  0  0  0  0  0  0  0  0  0  0
  202.7148  173.5036  156.2887 H   0  0  0  0  0  0  0  0  0  0  0  0
  202.2588  175.6913  157.3308 H   0  0  0  0  0  0  0  0  0  0  0  0
  201.9712  171.8772  154.4904 H   0  0  0  0  0  0  0  0  0  0  0  0
  201.3312  172.4243  152.9828 H   0  0  0  0  0  0  0  0  0  0  0  0
  203.2992  174.4652  152.0192 H   0  0  0  0  0  0  0  0  0  0  0  0
  202.7952  173.0384  151.1200 H   0  0  0  0  0  0  0  0  0  0  0  0
  204.5035  173.3494  151.4127 H   0  0  0  0  0  0  0  0  0  0  0  0
  204.4934  174.0282  154.3650 H   0  0  0  0  0  0  0  0  0  0  0  0
  205.5128  172.8466  153.5698 H   0  0  0  0  0  0  0  0  0  0  0  0
  204.5047  172.3438  154.9217 H   0  0  0  0  0  0  0  0  0  0  0  0
  200.8007  179.5904  153.8749 H   0  0  0  0  0  0  0  0  0  0  0  0
  196.7040  182.8462  154.0931 H   0  0  0  0  0  0  0  0  0  0  0  0
  195.8720  181.8514  155.2678 H   0  0  0  0  0  0  0  0  0  0  0  0
  195.6305  182.7035  157.1829 H   0  0  0  0  0  0  0  0  0  0  0  0
  194.3408  183.6286  158.8430 H   0  0  0  0  0  0  0  0  0  0  0  0
  194.0679  185.2301  160.7093 H   0  0  0  0  0  0  0  0  0  0  0  0
  195.8814  186.8591  161.2395 H   0  0  0  0  0  0  0  0  0  0  0  0
  197.9464  186.8950  159.8597 H   0  0  0  0  0  0  0  0  0  0  0  0
  198.2425  185.3215  158.0048 H   0  0  0  0  0  0  0  0  0  0  0  0
  203.5485  171.6468  152.9318 H   0  0  0  0  0  0  0  0  0  0  0  0
  1  2  1  0
  1 17  1  0
  2  3  2  0
  2 18  1  0
  3  4  1  0
  3 28  1  0
  4  5  1  0
  4 17  2  0
  5  6  1  0
  5 29  1  0
  6  7  1  0
  6 30  1  0
  6 31  1  0
  7  8  1  0
  7 12  2  0
  8  9  2  0
  8 32  1  0
  9 10  1  0
  9 33  1  0
 10 11  2  0
 10 13  1  0
 11 12  1  0
 11 34  1  0
 12 35  1  0
 13 14  1  0
 13 36  1  0
 13 37  1  0
 14 15  1  0
 14 16  1  0
 14 53  1  0
 15 38  1  0
 15 39  1  0
 15 40  1  0
 16 41  1  0
 16 42  1  0
 16 43  1  0
 17 44  1  0
 18 19  1  0
 18 45  1  0
 18 46  1  0
 19 20  2  0
 19 21  1  0
 21 22  1  0
 21 47  1  0
 22 23  2  0
 22 27  1  0
 23 24  1  0
 23 48  1  0
 24 25  2  0
 24 49  1  0
 25 26  1  0
 25 50  1  0
 26 27  2  0
 26 51  1  0
 27 52  1  0
M  CHG  1  14   1
M  END
>  <s_epik_cmdline>  (56) 
J2VwaWtfcHl0aG9uJywgJy1waCcsICc3LjAwMDAwMCcsICctcGh0JywgJzIuMDAwMDAwJywgJy1tcycsICcxNicsICctdG4nLCAnOCcsICctbWEnLCAnMjAwJywgJy1pbWFlJywgJzxpbmZpbGUubWFlPicsICctb21hZScsICc8b3V0ZmlsZS5tYWU+Jw==

>  <s_epik_input>  (56) 
W2NIXTFbY0hdW2NIXVtjSF1bY0hdYzFbTkhdQyg9TylbQ0gyXWMyc1tjSF1jKFtjSF0yKVtOSF1bQ0gyXWMzW2NIXVtjSF1jKFtjSF1bY0hdMylbQ0gyXU4oW0NIM10pW0NIM10=

>  <s_i_glide_gridfile>  (56) 
ATP-Grid

>  <s_lp_Force_Field>  (56) 
OPLS_2005

>  <s_lp_Variant>  (56) 
rxn512b____EMOL477532____EMOL15801711____EMOL50155899-1

>  <s_lp_label>  (56) 
2558_sdstereoexpander_1_neutralizer_1_epik_1_stereoizer_1

>  <s_m_source_file>  (56) 
ATP-VSW-LIGPREP-001-in.maegz

>  <s_sd_BIOSOLVEIT.INFINISEE\_QUERY\_NAME>  (56) 
Ref-Lig

>  <s_sd_BIOSOLVEIT.INFINISEE\_QUERY\_SMILES>  (56) 
S(c1nc2c(cc1C[NH2+]Cc3ccc(cc3)C[NH+](C)C)cccc2)Cc4ccccc4

>  <s_sd_BIOSOLVEIT.INFINISEE\_REACTION\_NAME>  (56) 
rxn512b

>  <s_sd_BIOSOLVEIT.INFINISEE\_REAGENT1\_NAME>  (56) 
EMOL477532

>  <s_sd_BIOSOLVEIT.INFINISEE\_REAGENT1\_SMILES>  (56) 
Nc1ccccc1

>  <s_sd_BIOSOLVEIT.INFINISEE\_REAGENT2\_NAME>  (56) 
EMOL15801711

>  <s_sd_BIOSOLVEIT.INFINISEE\_REAGENT2\_SMILES>  (56) 
BrC1=CSC(=C1)CC(=O)O

>  <s_sd_BIOSOLVEIT.INFINISEE\_REAGENT3\_NAME>  (56) 
EMOL50155899

>  <s_sd_BIOSOLVEIT.INFINISEE\_REAGENT3\_SMILES>  (56) 
N(Cc1ccc(cc1)CN)(C)C

>  <s_sd_BIOSOLVEIT.INFINISEE\_SPACE>  (56) 
eXplore_7tr_2022-12

>  <s_vsw_compound_code>  (56) 
81825

>  <s_vsw_variant>  (56) 
81825-1

>  <r_epik_Charging_Adjusted_Penalty>  (56) 
0.080189274810459593

>  <r_epik_Ionization_Penalty>  (56) 
0.040099999999999997

>  <r_epik_Ionization_Penalty_Charging>  (56) 
0.040099999999999997

>  <r_epik_Ionization_Penalty_Neutral>  (56) 
0

>  <r_epik_State_Penalty>  (56) 
0.040099999999999997

>  <r_i_docking_score>  (56) 
-5.8375554312765496

>  <r_i_glide_ecoul>  (56) 
-11.630301475524901

>  <r_i_glide_eff_state_penalty>  (56) 
0.040099999999999997

>  <r_i_glide_einternal>  (56) 
3.5076823234558101

>  <r_i_glide_emodel>  (56) 
-62.098987241852299

>  <r_i_glide_energy>  (56) 
-42.687466621398897

>  <r_i_glide_erotb>  (56) 
0.937907819918814

>  <r_i_glide_esite>  (56) 
-0.26065761024817902

>  <r_i_glide_evdw>  (56) 
-31.057165145873999

>  <r_i_glide_gscore>  (56) 
-5.8776554312765503

>  <r_i_glide_hbond>  (56) 
-0.28622573504606402

>  <r_i_glide_ligand_efficiency>  (56) 
-0.21620575671394601

>  <r_i_glide_ligand_efficiency_ln>  (56) 
-1.35888666477836

>  <r_i_glide_ligand_efficiency_sa>  (56) 
-0.64861726942926001

>  <r_i_glide_lipo>  (56) 
-1.9316901090968699

>  <r_i_glide_metal>  (56) 
-0

>  <r_i_glide_rewards>  (56) 
-1.0395863181818199

>  <r_lp_Energy>  (56) 
19.01586

>  <r_lp_tautomer_probability>  (56) 
0.99999274205267796

>  <r_qp_ACxDN^.5/SA>  (56) 
0.010683

>  <r_qp_CIQPlogS>  (56) 
-3.5950000000000002

>  <r_qp_EA(eV)>  (56) 
0.252

>  <r_qp_FISA>  (56) 
65.391999999999996

>  <r_qp_FOSA>  (56) 
261.03500000000003

>  <r_qp_IP(eV)>  (56) 
8.2680000000000007

>  <r_qp_Jm>  (56) 
0.00091276634626313001

>  <r_qp_PISA>  (56) 
364.35899999999998

>  <r_qp_PSA>  (56) 
54.640999999999998

>  <r_qp_PercentHumanOralAbsorption>  (56) 
89.097999999999999

>  <r_qp_QPPCaco>  (56) 
147.77199999999999

>  <r_qp_QPPMDCK>  (56) 
122.71599999999999

>  <r_qp_QPlogBB>  (56) 
0.26800000000000002

>  <r_qp_QPlogHERG>  (56) 
-8.1530000000000005

>  <r_qp_QPlogKhsa>  (56) 
0.65200000000000002

>  <r_qp_QPlogKp>  (56) 
-4.798

>  <r_qp_QPlogPC16>  (56) 
14.048999999999999

>  <r_qp_QPlogPo/w>  (56) 
3.9830000000000001

>  <r_qp_QPlogPoct>  (56) 
20.456

>  <r_qp_QPlogPw>  (56) 
10.99

>  <r_qp_QPlogS>  (56) 
-3.8210000000000002

>  <r_qp_QPpolrz>  (56) 
43.899000000000001

>  <r_qp_SASA>  (56) 
728.09100000000001

>  <r_qp_SAamideO>  (56) 
0

>  <r_qp_SAfluorine>  (56) 
0

>  <r_qp_WPSA>  (56) 
37.305999999999997

>  <r_qp_accptHB>  (56) 
5.5

>  <r_qp_dip^2/V>  (56) 
0.015658700000000001

>  <r_qp_dipole>  (56) 
4.4980000000000002

>  <r_qp_donorHB>  (56) 
2

>  <r_qp_glob>  (56) 
0.78797870000000003

>  <r_qp_mol_MW>  (56) 
379.51900000000001

>  <r_qp_volume>  (56) 
1292.1199999999999

>  <r_sd_BIOSOLVEIT.INFINISEE\_FTREES\_SIMILARITY>  (56) 
0.91200000000000003

>  <r_sd_BIOSOLVEIT.LOGP>  (56) 
3.1859000000000002

>  <r_sd_BIOSOLVEIT.MOLECULAR\_WEIGHT>  (56) 
380.53199999999998

>  <r_sd_BIOSOLVEIT.TPSA>  (56) 
45.57

>  <i_epik_Tot_Q>  (56) 
1

>  <i_epik_Tot_abs_Q>  (56) 
1

>  <i_f3d_flags>  (56) 
0

>  <i_i_glide_confnum>  (56) 
3

>  <i_i_glide_lignum>  (56) 
1023

>  <i_i_glide_posenum>  (56) 
9

>  <i_i_glide_rotatable_bonds>  (56) 
9

>  <i_lp_mmshare_version>  (56) 
65135

>  <i_m_ct_format>  (56) 
2

>  <i_m_source_file_index>  (56) 
2558

>  <i_qp_#NandO>  (56) 
4

>  <i_qp_#acid>  (56) 
0

>  <i_qp_#amide>  (56) 
0

>  <i_qp_#amidine>  (56) 
0

>  <i_qp_#amine>  (56) 
2

>  <i_qp_#in34>  (56) 
0

>  <i_qp_#in56>  (56) 
17

>  <i_qp_#metab>  (56) 
7

>  <i_qp_#nonHatm>  (56) 
27

>  <i_qp_#noncon>  (56) 
0

>  <i_qp_#ringatoms>  (56) 
17

>  <i_qp_#rotor>  (56) 
8

>  <i_qp_#rtvFG>  (56) 
0

>  <i_qp_#stars>  (56) 
0

>  <i_qp_CNS>  (56) 
1

>  <i_qp_HumanOralAbsorption>  (56) 
3

>  <i_qp_RuleOfFive>  (56) 
0

>  <i_qp_RuleOfThree>  (56) 
1

>  <i_sd_BIOSOLVEIT.INFINISEE\_RESULT\_RANK>  (56) 
36689

>  <i_sd_version>  (56) 
0

>  <b_lp_Chiralities_Consistent>  (56) 
1

>  <b_sd_chiral_flag>  (56) 
0

>  <canonical_id>  (56) 
ATP-HTVS-83768D529230

>  <compound_code>  (56) 
81825

>  <title>  (56) 
rxn512b____EMOL477532____EMOL15801711____EMOL50155899

>  <variant>  (56) 
81825-1

>  <source_file>  (56) 
运行/运行/ATP-VSW/ATP-VSW-DOCK_HTVS_1-001_lib/ATP-VSW-DOCK_HTVS_1-001_lib

>  <canonical_smiles>  (56) 
C[NH+](C)Cc1ccc(CNc2csc(CC(=O)Nc3ccccc3)c2)cc1

>  <scaffold>  (56) 
O=C(Cc1cc(NCc2ccccc2)cs1)Nc1ccccc1

>  <molecular_formula>  (56) 
C22H26N3OS+

>  <acquisition_id_v2>  (56) 
ATP-ACQ2-0056

>  <selection_arm_v2>  (56) 
local_structure_bridge

>  <priority_v2>  (56) 
P1

$$$$
ATP-ACQ2-0057
     RDKit          3D

 58 61  0  0  0  0  0  0  0  0999 V2000
  197.8775  186.1532  154.5922 O   0  0  0  0  0  0  0  0  0  0  0  0
  198.1688  185.5540  153.5844 C   0  0  0  0  0  0  0  0  0  0  0  0
  198.8730  186.2172  152.6166 N   0  0  0  0  0  0  0  0  0  0  0  0
  199.2946  185.6463  151.3967 C   0  0  0  0  0  0  0  0  0  0  0  0
  198.8004  186.1843  150.1819 C   0  0  0  0  0  0  0  0  0  0  0  0
  199.1495  185.5890  148.9575 C   0  0  0  0  0  0  0  0  0  0  0  0
  199.9894  184.4601  148.9357 C   0  0  0  0  0  0  0  0  0  0  0  0
  200.4773  183.9088  150.1364 C   0  0  0  0  0  0  0  0  0  0  0  0
  200.1381  184.5053  151.3628 C   0  0  0  0  0  0  0  0  0  0  0  0
  199.2210  187.6395  152.8456 C   0  0  0  0  0  0  0  0  0  0  0  0
  200.6726  187.8047  153.0163 C   0  0  0  0  0  0  0  0  0  0  0  0
  201.8118  187.9301  153.1597 N   0  0  0  0  0  0  0  0  0  0  0  0
  197.7478  184.1099  153.4211 C   0  0  0  0  0  0  0  0  0  0  0  0
  197.2993  183.7167  152.1723 N   0  0  0  0  0  0  0  0  0  0  0  0
  197.0036  182.3793  152.1100 C   0  0  0  0  0  0  0  0  0  0  0  0
  197.2167  181.8791  153.4278 C   0  0  0  0  0  0  0  0  0  0  0  0
  196.9401  180.4907  153.6093 C   0  0  0  0  0  0  0  0  0  0  0  0
  196.4906  179.6704  152.5535 C   0  0  0  0  0  0  0  0  0  0  0  0
  196.3342  180.1801  151.2552 C   0  0  0  0  0  0  0  0  0  0  0  0
  196.6109  181.5476  151.0367 C   0  0  0  0  0  0  0  0  0  0  0  0
  197.7010  182.9923  154.2523 C   0  0  0  0  0  0  0  0  0  0  0  0
  198.0581  182.8226  155.6250 N   0  0  0  0  0  0  0  0  0  0  0  0
  198.0279  183.9186  156.5961 C   0  0  0  0  0  0  0  0  0  0  0  0
  197.0364  183.8488  157.7231 C   0  0  0  0  0  0  0  0  0  0  0  0
  197.1012  184.7657  158.8059 C   0  0  0  0  0  0  0  0  0  0  0  0
  196.1248  184.6962  159.8209 C   0  0  0  0  0  0  0  0  0  0  0  0
  195.0957  183.7444  159.7320 C   0  0  0  0  0  0  0  0  0  0  0  0
  194.9826  182.8864  158.6357 C   0  0  0  0  0  0  0  0  0  0  0  0
  195.9386  182.9726  157.6182 C   0  0  0  0  0  0  0  0  0  0  0  0
  198.1821  185.8362  158.8833 C   0  0  0  0  0  0  0  0  0  0  0  0
  198.8094  181.6371  156.0497 C   0  0  0  0  0  0  0  0  0  0  0  0
  197.9949  180.6443  156.9306 C   0  0  0  0  0  0  0  0  0  0  0  0
  198.1188  187.0222  150.2096 H   0  0  0  0  0  0  0  0  0  0  0  0
  198.7713  186.0097  148.0367 H   0  0  0  0  0  0  0  0  0  0  0  0
  200.2637  184.0206  147.9909 H   0  0  0  0  0  0  0  0  0  0  0  0
  201.1050  183.0255  150.1215 H   0  0  0  0  0  0  0  0  0  0  0  0
  200.4736  184.0513  152.2881 H   0  0  0  0  0  0  0  0  0  0  0  0
  198.8577  188.2418  152.0185 H   0  0  0  0  0  0  0  0  0  0  0  0
  198.7975  188.1318  153.7189 H   0  0  0  0  0  0  0  0  0  0  0  0
  197.3707  184.3247  151.3632 H   0  0  0  0  0  0  0  0  0  0  0  0
  197.0646  179.9880  154.5328 H   0  0  0  0  0  0  0  0  0  0  0  0
  196.2741  178.6386  152.7830 H   0  0  0  0  0  0  0  0  0  0  0  0
  195.9874  179.5228  150.4677 H   0  0  0  0  0  0  0  0  0  0  0  0
  196.5018  181.9569  150.0380 H   0  0  0  0  0  0  0  0  0  0  0  0
  199.0382  184.1996  156.9166 H   0  0  0  0  0  0  0  0  0  0  0  0
  197.5157  184.7439  156.1729 H   0  0  0  0  0  0  0  0  0  0  0  0
  196.1944  185.3493  160.6791 H   0  0  0  0  0  0  0  0  0  0  0  0
  194.3849  183.6501  160.5385 H   0  0  0  0  0  0  0  0  0  0  0  0
  194.2104  182.1320  158.5626 H   0  0  0  0  0  0  0  0  0  0  0  0
  195.7984  182.3446  156.7467 H   0  0  0  0  0  0  0  0  0  0  0  0
  198.1112  186.3927  159.8177 H   0  0  0  0  0  0  0  0  0  0  0  0
  198.1087  186.5626  158.0685 H   0  0  0  0  0  0  0  0  0  0  0  0
  199.1708  185.3816  158.8513 H   0  0  0  0  0  0  0  0  0  0  0  0
  199.2532  181.1581  155.1664 H   0  0  0  0  0  0  0  0  0  0  0  0
  199.6497  182.0040  156.6457 H   0  0  0  0  0  0  0  0  0  0  0  0
  198.6186  179.7750  157.1626 H   0  0  0  0  0  0  0  0  0  0  0  0
  197.0690  180.2834  156.4974 H   0  0  0  0  0  0  0  0  0  0  0  0
  197.6665  181.0929  157.8684 H   0  0  0  0  0  0  0  0  0  0  0  0
  1  2  2  0
  2  3  1  0
  2 13  1  0
  3  4  1  0
  3 10  1  0
  4  5  2  0
  4  9  1  0
  5  6  1  0
  5 33  1  0
  6  7  2  0
  6 34  1  0
  7  8  1  0
  7 35  1  0
  8  9  2  0
  8 36  1  0
  9 37  1  0
 10 11  1  0
 10 38  1  0
 10 39  1  0
 11 12  3  0
 13 14  1  0
 13 21  2  0
 14 15  1  0
 14 40  1  0
 15 16  1  0
 15 20  2  0
 16 17  2  0
 16 21  1  0
 17 18  1  0
 17 41  1  0
 18 19  2  0
 18 42  1  0
 19 20  1  0
 19 43  1  0
 20 44  1  0
 21 22  1  0
 22 23  1  0
 22 31  1  0
 23 24  1  0
 23 45  1  0
 23 46  1  0
 24 25  1  0
 24 29  2  0
 25 26  2  0
 25 30  1  0
 26 27  1  0
 26 47  1  0
 27 28  2  0
 27 48  1  0
 28 29  1  0
 28 49  1  0
 29 50  1  0
 30 51  1  0
 30 52  1  0
 30 53  1  0
 31 32  1  0
 31 54  1  0
 31 55  1  0
 32 56  1  0
 32 57  1  0
 32 58  1  0
M  END
>  <s_epik_cmdline>  (57) 
J2VwaWtfcHl0aG9uJywgJy1waCcsICc3LjAwMDAwMCcsICctcGh0JywgJzIuMDAwMDAwJywgJy1tcycsICcxNicsICctdG4nLCAnOCcsICctbWEnLCAnMjAwJywgJy1pbWFlJywgJzxpbmZpbGUubWFlPicsICctb21hZScsICc8b3V0ZmlsZS5tYWU+Jw==

>  <s_epik_input>  (57) 
W2NIXTFbY0hdW2NIXVtjSF1bY0hdYzFOKFtDSDJdQyNOKUMoPU8pYyhbbkhdMiljKGMoYzIzKVtjSF1bY0hdW2NIXVtjSF0zKU4oW0NIMl1bQ0gzXSlbQ0gyXWM0YyhbQ0gzXSlbY0hdW2NIXVtjSF1bY0hdNA==

>  <s_i_glide_gridfile>  (57) 
ATP-Grid

>  <s_lp_Force_Field>  (57) 
OPLS_2005

>  <s_lp_Variant>  (57) 
rxn512b____EMOL712348____EMOL719673____EMOL17023805-1

>  <s_lp_label>  (57) 
2965_sdstereoexpander_1_neutralizer_1_epik_1_stereoizer_1

>  <s_m_source_file>  (57) 
ATP-VSW-LIGPREP-001-in.maegz

>  <s_sd_BIOSOLVEIT.INFINISEE\_QUERY\_NAME>  (57) 
Ref-Lig

>  <s_sd_BIOSOLVEIT.INFINISEE\_QUERY\_SMILES>  (57) 
S(c1nc2c(cc1C[NH2+]Cc3ccc(cc3)C[NH+](C)C)cccc2)Cc4ccccc4

>  <s_sd_BIOSOLVEIT.INFINISEE\_REACTION\_NAME>  (57) 
rxn512b

>  <s_sd_BIOSOLVEIT.INFINISEE\_REAGENT1\_NAME>  (57) 
EMOL712348

>  <s_sd_BIOSOLVEIT.INFINISEE\_REAGENT1\_SMILES>  (57) 
N#CCNc1ccccc1

>  <s_sd_BIOSOLVEIT.INFINISEE\_REAGENT2\_NAME>  (57) 
EMOL719673

>  <s_sd_BIOSOLVEIT.INFINISEE\_REAGENT2\_SMILES>  (57) 
BrC=1c2c(NC1C(=O)O)cccc2

>  <s_sd_BIOSOLVEIT.INFINISEE\_REAGENT3\_NAME>  (57) 
EMOL17023805

>  <s_sd_BIOSOLVEIT.INFINISEE\_REAGENT3\_SMILES>  (57) 
N(Cc1c(cccc1)C)CC

>  <s_sd_BIOSOLVEIT.INFINISEE\_SPACE>  (57) 
eXplore_7tr_2022-12

>  <s_vsw_compound_code>  (57) 
94849

>  <s_vsw_variant>  (57) 
94849-1

>  <r_epik_Charging_Adjusted_Penalty>  (57) 
0

>  <r_epik_Ionization_Penalty>  (57) 
0.00020000000000000001

>  <r_epik_Ionization_Penalty_Charging>  (57) 
0

>  <r_epik_Ionization_Penalty_Neutral>  (57) 
0.00020000000000000001

>  <r_epik_State_Penalty>  (57) 
-0

>  <r_i_docking_score>  (57) 
-2.8287771709998299

>  <r_i_glide_ecoul>  (57) 
1.7486652135848999

>  <r_i_glide_eff_state_penalty>  (57) 
-0

>  <r_i_glide_einternal>  (57) 
9.1535902023315394

>  <r_i_glide_emodel>  (57) 
-32.423553353142097

>  <r_i_glide_energy>  (57) 
-31.305610299110398

>  <r_i_glide_erotb>  (57) 
0.66583141583920802

>  <r_i_glide_esite>  (57) 
-0.021851527286952398

>  <r_i_glide_evdw>  (57) 
-33.054275512695298

>  <r_i_glide_gscore>  (57) 
-2.8287771709998299

>  <r_i_glide_hbond>  (57) 
0

>  <r_i_glide_ligand_efficiency>  (57) 
-0.088399286593744603

>  <r_i_glide_ligand_efficiency_ln>  (57) 
-0.63344031814025703

>  <r_i_glide_ligand_efficiency_sa>  (57) 
-0.28065024074007699

>  <r_i_glide_lipo>  (57) 
-1.4769246847180399

>  <r_i_glide_metal>  (57) 
-0

>  <r_i_glide_rewards>  (57) 
-0.60541838123701397

>  <r_lp_Energy>  (57) 
42.327812999999999

>  <r_lp_tautomer_probability>  (57) 
1

>  <r_qp_ACxDN^.5/SA>  (57) 
0.0075843000000000004

>  <r_qp_CIQPlogS>  (57) 
-6.819

>  <r_qp_EA(eV)>  (57) 
0.623

>  <r_qp_FISA>  (57) 
86.866

>  <r_qp_FOSA>  (57) 
189.67500000000001

>  <r_qp_IP(eV)>  (57) 
7.923

>  <r_qp_Jm>  (57) 
0.00075359435875842597

>  <r_qp_PISA>  (57) 
448.63799999999998

>  <r_qp_PSA>  (57) 
63.130000000000003

>  <r_qp_PercentHumanOralAbsorption>  (57) 
100

>  <r_qp_QPPCaco>  (57) 
370.72300000000001

>  <r_qp_QPPMDCK>  (57) 
187.251

>  <r_qp_QPlogBB>  (57) 
-0.38500000000000001

>  <r_qp_QPlogHERG>  (57) 
-7.3360000000000003

>  <r_qp_QPlogKhsa>  (57) 
0.89800000000000002

>  <r_qp_QPlogKp>  (57) 
-2.835

>  <r_qp_QPlogPC16>  (57) 
14.842000000000001

>  <r_qp_QPlogPo/w>  (57) 
4.9199999999999999

>  <r_qp_QPlogPoct>  (57) 
20.774000000000001

>  <r_qp_QPlogPw>  (57) 
10.224

>  <r_qp_QPlogS>  (57) 
-5.9139999999999997

>  <r_qp_QPpolrz>  (57) 
47.402999999999999

>  <r_qp_SASA>  (57) 
725.17899999999997

>  <r_qp_SAamideO>  (57) 
0

>  <r_qp_SAfluorine>  (57) 
0

>  <r_qp_WPSA>  (57) 
0

>  <r_qp_accptHB>  (57) 
5.5

>  <r_qp_dip^2/V>  (57) 
0.039581900000000003

>  <r_qp_dipole>  (57) 
7.3360000000000003

>  <r_qp_donorHB>  (57) 
1

>  <r_qp_glob>  (57) 
0.81842990000000004

>  <r_qp_mol_MW>  (57) 
422.529

>  <r_qp_volume>  (57) 
1359.5419999999999

>  <r_sd_BIOSOLVEIT.INFINISEE\_FTREES\_SIMILARITY>  (57) 
0.90300000000000002

>  <r_sd_BIOSOLVEIT.LOGP>  (57) 
5.6731999999999996

>  <r_sd_BIOSOLVEIT.MOLECULAR\_WEIGHT>  (57) 
422.529

>  <r_sd_BIOSOLVEIT.TPSA>  (57) 
63.130000000000003

>  <i_epik_Tot_Q>  (57) 
0

>  <i_epik_Tot_abs_Q>  (57) 
0

>  <i_f3d_flags>  (57) 
0

>  <i_i_glide_confnum>  (57) 
4

>  <i_i_glide_lignum>  (57) 
1404

>  <i_i_glide_posenum>  (57) 
9

>  <i_i_glide_rotatable_bonds>  (57) 
8

>  <i_lp_mmshare_version>  (57) 
65135

>  <i_m_ct_format>  (57) 
2

>  <i_m_source_file_index>  (57) 
2965

>  <i_qp_#NandO>  (57) 
5

>  <i_qp_#acid>  (57) 
0

>  <i_qp_#amide>  (57) 
0

>  <i_qp_#amidine>  (57) 
0

>  <i_qp_#amine>  (57) 
1

>  <i_qp_#in34>  (57) 
0

>  <i_qp_#in56>  (57) 
21

>  <i_qp_#metab>  (57) 
6

>  <i_qp_#nonHatm>  (57) 
32

>  <i_qp_#noncon>  (57) 
0

>  <i_qp_#ringatoms>  (57) 
21

>  <i_qp_#rotor>  (57) 
8

>  <i_qp_#rtvFG>  (57) 
0

>  <i_qp_#stars>  (57) 
0

>  <i_qp_CNS>  (57) 
1

>  <i_qp_HumanOralAbsorption>  (57) 
3

>  <i_qp_RuleOfFive>  (57) 
0

>  <i_qp_RuleOfThree>  (57) 
1

>  <i_sd_BIOSOLVEIT.INFINISEE\_RESULT\_RANK>  (57) 
81950

>  <i_sd_version>  (57) 
0

>  <b_lp_Chiralities_Consistent>  (57) 
1

>  <b_sd_chiral_flag>  (57) 
0

>  <canonical_id>  (57) 
ATP-HTVS-892E5C6BD7E4

>  <compound_code>  (57) 
94849

>  <title>  (57) 
rxn512b____EMOL712348____EMOL719673____EMOL17023805

>  <variant>  (57) 
94849-1

>  <source_file>  (57) 
运行/运行/ATP-VSW/ATP-VSW-DOCK_HTVS_1-001_lib/ATP-VSW-DOCK_HTVS_1-001_lib

>  <canonical_smiles>  (57) 
CCN(Cc1ccccc1C)c1c(C(=O)N(CC#N)c2ccccc2)[nH]c2ccccc12

>  <scaffold>  (57) 
O=C(Nc1ccccc1)c1[nH]c2ccccc2c1NCc1ccccc1

>  <molecular_formula>  (57) 
C27H26N4O

>  <acquisition_id_v2>  (57) 
ATP-ACQ2-0057

>  <selection_arm_v2>  (57) 
scaffold_score_exploration

>  <priority_v2>  (57) 
P1

$$$$
ATP-ACQ2-0058
     RDKit          3D

 54 57  0  0  0  0  0  0  0  0999 V2000
  204.8174  180.4252  160.7350 F   0  0  0  0  0  0  0  0  0  0  0  0
  203.7612  181.0353  160.1488 C   0  0  0  0  0  0  0  0  0  0  0  0
  203.3596  180.6564  158.8546 C   0  0  0  0  0  0  0  0  0  0  0  0
  202.2597  181.2920  158.2478 C   0  0  0  0  0  0  0  0  0  0  0  0
  201.8418  180.8881  156.9187 C   0  0  0  0  0  0  0  0  0  0  0  0
  201.4594  180.5716  155.8069 C   0  0  0  0  0  0  0  0  0  0  0  0
  200.9300  180.2917  154.4958 C   0  0  0  0  0  0  0  0  0  0  0  0
  201.4181  180.8027  153.4891 O   0  0  0  0  0  0  0  0  0  0  0  0
  199.8873  179.4461  154.5025 N   0  0  0  0  0  0  0  0  0  0  0  0
  198.9498  179.3062  153.4413 C   0  0  0  0  0  0  0  0  0  0  0  0
  197.6212  179.7817  153.5950 C   0  0  0  0  0  0  0  0  0  0  0  0
  197.1719  180.4532  154.8051 C   0  0  0  0  0  0  0  0  0  0  0  0
  196.8472  181.0604  155.8200 C   0  0  0  0  0  0  0  0  0  0  0  0
  196.4887  181.7987  157.0387 C   0  0  2  0  0  0  0  0  0  0  0  0
  195.0990  181.4533  157.2979 N   0  0  0  0  0  0  0  0  0  0  0  0
  196.6408  183.3204  156.9296 C   0  0  0  0  0  0  0  0  0  0  0  0
  196.0819  184.1017  158.1274 C   0  0  0  0  0  0  0  0  0  0  0  0
  196.8976  185.0713  158.7570 C   0  0  0  0  0  0  0  0  0  0  0  0
  196.4077  185.7999  159.8690 C   0  0  0  0  0  0  0  0  0  0  0  0
  197.1615  186.7680  160.4401 F   0  0  0  0  0  0  0  0  0  0  0  0
  195.1233  185.5291  160.3871 C   0  0  0  0  0  0  0  0  0  0  0  0
  194.3178  184.5560  159.7611 C   0  0  0  0  0  0  0  0  0  0  0  0
  194.7768  183.8744  158.6314 C   0  0  0  0  0  0  0  0  0  0  0  0
  196.7294  179.6224  152.5157 C   0  0  0  0  0  0  0  0  0  0  0  0
  197.0707  179.0536  151.3444 N   0  0  0  0  0  0  0  0  0  0  0  0
  198.3347  178.6081  151.1783 C   0  0  0  0  0  0  0  0  0  0  0  0
  199.3146  178.7092  152.2064 C   0  0  0  0  0  0  0  0  0  0  0  0
  200.6201  178.2120  151.9785 C   0  0  0  0  0  0  0  0  0  0  0  0
  200.9680  177.6449  150.7421 C   0  0  0  0  0  0  0  0  0  0  0  0
  200.0067  177.5507  149.7223 C   0  0  0  0  0  0  0  0  0  0  0  0
  198.6990  178.0221  149.9470 C   0  0  0  0  0  0  0  0  0  0  0  0
  201.5597  182.3064  158.9344 C   0  0  0  0  0  0  0  0  0  0  0  0
  201.9626  182.6821  160.2313 C   0  0  0  0  0  0  0  0  0  0  0  0
  203.0635  182.0466  160.8369 C   0  0  0  0  0  0  0  0  0  0  0  0
  195.0817  180.4349  157.3471 H   0  0  0  0  0  0  0  0  0  0  0  0
  194.4890  181.7886  156.5418 H   0  0  0  0  0  0  0  0  0  0  0  0
  203.8964  179.8762  158.3327 H   0  0  0  0  0  0  0  0  0  0  0  0
  199.6306  179.0328  155.3841 H   0  0  0  0  0  0  0  0  0  0  0  0
  197.0924  181.3987  157.8500 H   0  0  0  0  0  0  0  0  0  0  0  0
  197.6990  183.5536  156.7937 H   0  0  0  0  0  0  0  0  0  0  0  0
  196.1404  183.6828  156.0398 H   0  0  0  0  0  0  0  0  0  0  0  0
  197.8886  185.3077  158.3718 H   0  0  0  0  0  0  0  0  0  0  0  0
  194.7332  186.0721  161.2443 H   0  0  0  0  0  0  0  0  0  0  0  0
  193.3226  184.3378  160.1301 H   0  0  0  0  0  0  0  0  0  0  0  0
  194.0575  183.2191  158.1666 H   0  0  0  0  0  0  0  0  0  0  0  0
  195.7099  179.9721  152.5860 H   0  0  0  0  0  0  0  0  0  0  0  0
  201.3844  178.2673  152.7388 H   0  0  0  0  0  0  0  0  0  0  0  0
  201.9789  177.2966  150.5783 H   0  0  0  0  0  0  0  0  0  0  0  0
  200.2744  177.1159  148.7701 H   0  0  0  0  0  0  0  0  0  0  0  0
  197.9654  177.9437  149.1566 H   0  0  0  0  0  0  0  0  0  0  0  0
  200.7134  182.7971  158.4748 H   0  0  0  0  0  0  0  0  0  0  0  0
  201.4288  183.4565  160.7625 H   0  0  0  0  0  0  0  0  0  0  0  0
  203.3735  182.3318  161.8310 H   0  0  0  0  0  0  0  0  0  0  0  0
  194.8054  181.8572  158.1838 H   0  0  0  0  0  0  0  0  0  0  0  0
  1  2  1  0
  2  3  2  0
  2 34  1  0
  3  4  1  0
  3 37  1  0
  4  5  1  0
  4 32  2  0
  5  6  3  0
  6  7  1  0
  7  8  2  0
  7  9  1  0
  9 10  1  0
  9 38  1  0
 10 11  2  0
 10 27  1  0
 11 12  1  0
 11 24  1  0
 12 13  3  0
 13 14  1  0
 14 15  1  0
 14 16  1  0
 14 39  1  1
 15 35  1  0
 15 36  1  0
 15 54  1  0
 16 17  1  0
 16 40  1  0
 16 41  1  0
 17 18  1  0
 17 23  2  0
 18 19  2  0
 18 42  1  0
 19 20  1  0
 19 21  1  0
 21 22  2  0
 21 43  1  0
 22 23  1  0
 22 44  1  0
 23 45  1  0
 24 25  2  0
 24 46  1  0
 25 26  1  0
 26 27  1  0
 26 31  2  0
 27 28  2  0
 28 29  1  0
 28 47  1  0
 29 30  2  0
 29 48  1  0
 30 31  1  0
 30 49  1  0
 31 50  1  0
 32 33  1  0
 32 51  1  0
 33 34  2  0
 33 52  1  0
 34 53  1  0
M  CHG  1  15   1
M  END
>  <s_epik_cmdline>  (58) 
J2VwaWtfcHl0aG9uJywgJy1waCcsICc3LjAwMDAwMCcsICctcGh0JywgJzIuMDAwMDAwJywgJy1tcycsICcxNicsICctdG4nLCAnOCcsICctbWEnLCAnMjAwJywgJy1pbWFlJywgJzxpbmZpbGUubWFlPicsICctb21hZScsICc8b3V0ZmlsZS5tYWU+Jw==

>  <s_epik_input>  (58) 
RmMxW2NIXWMoW2NIXVtjSF1bY0hdMSlDI0NDKD1PKVtOSF1jKGMoYzIzKVtjSF1bY0hdW2NIXVtjSF0zKWMoW2NIXW4yKUMjQ1tDQEhdKFtOSDJdKVtDSDJdYzRbY0hdYyhGKVtjSF1bY0hdW2NIXTQ=

>  <s_i_glide_gridfile>  (58) 
ATP-Grid

>  <s_lp_Force_Field>  (58) 
OPLS_2005

>  <s_lp_Variant>  (58) 
rxn503b____EMOL32279559____EMOL13728749____EMOL313110234-3

>  <s_lp_label>  (58) 
2654_sdstereoexpander_1_neutralizer_1_epik_2_stereoizer_1

>  <s_m_source_file>  (58) 
ATP-VSW-LIGPREP-001-in.maegz

>  <s_sd_BIOSOLVEIT.INFINISEE\_QUERY\_NAME>  (58) 
Ref-Lig

>  <s_sd_BIOSOLVEIT.INFINISEE\_QUERY\_SMILES>  (58) 
S(c1nc2c(cc1C[NH2+]Cc3ccc(cc3)C[NH+](C)C)cccc2)Cc4ccccc4

>  <s_sd_BIOSOLVEIT.INFINISEE\_REACTION\_NAME>  (58) 
rxn503b

>  <s_sd_BIOSOLVEIT.INFINISEE\_REAGENT1\_NAME>  (58) 
EMOL32279559

>  <s_sd_BIOSOLVEIT.INFINISEE\_REAGENT1\_SMILES>  (58) 
Fc1cc(C#CC(=O)O)ccc1

>  <s_sd_BIOSOLVEIT.INFINISEE\_REAGENT2\_NAME>  (58) 
EMOL13728749

>  <s_sd_BIOSOLVEIT.INFINISEE\_REAGENT2\_SMILES>  (58) 
Brc1c(N)c2c(nc1)cccc2

>  <s_sd_BIOSOLVEIT.INFINISEE\_REAGENT3\_NAME>  (58) 
EMOL313110234

>  <s_sd_BIOSOLVEIT.INFINISEE\_REAGENT3\_SMILES>  (58) 
Fc1cc(ccc1)CC(N)C#C

>  <s_sd_BIOSOLVEIT.INFINISEE\_SPACE>  (58) 
eXplore_7tr_2022-12

>  <s_vsw_compound_code>  (58) 
84897

>  <s_vsw_variant>  (58) 
84897-3

>  <r_epik_Charging_Adjusted_Penalty>  (58) 
1.22591159016581

>  <r_epik_Ionization_Penalty>  (58) 
0.61350000000000005

>  <r_epik_Ionization_Penalty_Charging>  (58) 
0.61299999999999999

>  <r_epik_Ionization_Penalty_Neutral>  (58) 
0.00059999999999999995

>  <r_epik_State_Penalty>  (58) 
0.61299999999999999

>  <r_i_docking_score>  (58) 
-6.32225078624524

>  <r_i_glide_ecoul>  (58) 
-16.886165618896499

>  <r_i_glide_eff_state_penalty>  (58) 
0.61299999999999999

>  <r_i_glide_einternal>  (58) 
5.7785072326660201

>  <r_i_glide_emodel>  (58) 
-74.573917103221106

>  <r_i_glide_energy>  (58) 
-47.807611465454102

>  <r_i_glide_erotb>  (58) 
0.58804509089820101

>  <r_i_glide_esite>  (58) 
-0.106434340225723

>  <r_i_glide_evdw>  (58) 
-30.921445846557599

>  <r_i_glide_gscore>  (58) 
-6.9352507862452404

>  <r_i_glide_hbond>  (58) 
-0.38375486728048502

>  <r_i_glide_ligand_efficiency>  (58) 
-0.18594855253662501

>  <r_i_glide_ligand_efficiency_ln>  (58) 
-1.3967625318094501

>  <r_i_glide_ligand_efficiency_sa>  (58) 
-0.60240112452002104

>  <r_i_glide_lipo>  (58) 
-1.996579390575

>  <r_i_glide_metal>  (58) 
-0

>  <r_i_glide_rewards>  (58) 
-0.95753014389987601

>  <r_lp_Energy>  (58) 
25.858775999999999

>  <r_qp_ACxDN^.5/SA>  (58) 
0.0109747

>  <r_qp_CIQPlogS>  (58) 
-6.649

>  <r_qp_EA(eV)>  (58) 
1.2969999999999999

>  <r_qp_FISA>  (58) 
117.901

>  <r_qp_FOSA>  (58) 
52.253999999999998

>  <r_qp_IP(eV)>  (58) 
8.9459999999999997

>  <r_qp_Jm>  (58) 
0.0021891366506051799

>  <r_qp_PISA>  (58) 
471.50999999999999

>  <r_qp_PSA>  (58) 
77.251000000000005

>  <r_qp_PercentHumanOralAbsorption>  (58) 
96.518000000000001

>  <r_qp_QPPCaco>  (58) 
188.25299999999999

>  <r_qp_QPPMDCK>  (58) 
213.678

>  <r_qp_QPlogBB>  (58) 
-0.495

>  <r_qp_QPlogHERG>  (58) 
-7.2699999999999996

>  <r_qp_QPlogKhsa>  (58) 
0.89700000000000002

>  <r_qp_QPlogKp>  (58) 
-3.3260000000000001

>  <r_qp_QPlogPC16>  (58) 
15.068

>  <r_qp_QPlogPo/w>  (58) 
4.9290000000000003

>  <r_qp_QPlogPoct>  (58) 
23.760000000000002

>  <r_qp_QPlogPw>  (58) 
12.523

>  <r_qp_QPlogS>  (58) 
-4.9880000000000004

>  <r_qp_QPpolrz>  (58) 
46.994

>  <r_qp_SASA>  (58) 
710.202

>  <r_qp_SAamideO>  (58) 
0

>  <r_qp_SAfluorine>  (58) 
68.537000000000006

>  <r_qp_WPSA>  (58) 
68.537000000000006

>  <r_qp_accptHB>  (58) 
4.5

>  <r_qp_dip^2/V>  (58) 
0.053341600000000003

>  <r_qp_dipole>  (58) 
8.4670000000000005

>  <r_qp_donorHB>  (58) 
3

>  <r_qp_glob>  (58) 
0.82925300000000002

>  <r_qp_mol_MW>  (58) 
451.47399999999999

>  <r_qp_volume>  (58) 
1343.865

>  <r_sd_BIOSOLVEIT.INFINISEE\_FTREES\_SIMILARITY>  (58) 
0.91000000000000003

>  <r_sd_BIOSOLVEIT.LOGP>  (58) 
3.7079

>  <r_sd_BIOSOLVEIT.MOLECULAR\_WEIGHT>  (58) 
452.48200000000003

>  <r_sd_BIOSOLVEIT.TPSA>  (58) 
69.629999999999995

>  <i_epik_Tot_Q>  (58) 
1

>  <i_epik_Tot_abs_Q>  (58) 
1

>  <i_f3d_flags>  (58) 
0

>  <i_i_glide_confnum>  (58) 
3

>  <i_i_glide_lignum>  (58) 
1154

>  <i_i_glide_posenum>  (58) 
1

>  <i_i_glide_rotatable_bonds>  (58) 
8

>  <i_lp_mmshare_version>  (58) 
65135

>  <i_m_ct_format>  (58) 
2

>  <i_m_source_file_index>  (58) 
2654

>  <i_qp_#NandO>  (58) 
4

>  <i_qp_#acid>  (58) 
0

>  <i_qp_#amide>  (58) 
0

>  <i_qp_#amidine>  (58) 
0

>  <i_qp_#amine>  (58) 
1

>  <i_qp_#in34>  (58) 
0

>  <i_qp_#in56>  (58) 
22

>  <i_qp_#metab>  (58) 
5

>  <i_qp_#nonHatm>  (58) 
34

>  <i_qp_#noncon>  (58) 
0

>  <i_qp_#ringatoms>  (58) 
22

>  <i_qp_#rotor>  (58) 
8

>  <i_qp_#rtvFG>  (58) 
0

>  <i_qp_#stars>  (58) 
1

>  <i_qp_CNS>  (58) 
0

>  <i_qp_HumanOralAbsorption>  (58) 
3

>  <i_qp_RuleOfFive>  (58) 
0

>  <i_qp_RuleOfThree>  (58) 
0

>  <i_sd_BIOSOLVEIT.INFINISEE\_RESULT\_RANK>  (58) 
46944

>  <i_sd_version>  (58) 
0

>  <b_lp_Chiralities_Consistent>  (58) 
1

>  <b_sd_chiral_flag>  (58) 
0

>  <canonical_id>  (58) 
ATP-HTVS-3B3954EE8C13

>  <compound_code>  (58) 
84897

>  <title>  (58) 
rxn503b____EMOL32279559____EMOL13728749____EMOL313110234

>  <variant>  (58) 
84897-3

>  <source_file>  (58) 
运行/运行/ATP-VSW/ATP-VSW-DOCK_HTVS_1-001_lib/ATP-VSW-DOCK_HTVS_1-001_lib

>  <canonical_smiles>  (58) 
[NH3+][C@@H](C#Cc1cnc2ccccc2c1NC(=O)C#Cc1cccc(F)c1)Cc1cccc(F)c1

>  <scaffold>  (58) 
O=C(C#Cc1ccccc1)Nc1c(C#CCCc2ccccc2)cnc2ccccc12

>  <molecular_formula>  (58) 
C28H20F2N3O+

>  <acquisition_id_v2>  (58) 
ATP-ACQ2-0058

>  <selection_arm_v2>  (58) 
exploitation

>  <priority_v2>  (58) 
P1

$$$$
ATP-ACQ2-0059
     RDKit          3D

 63 65  0  0  0  0  0  0  0  0999 V2000
  194.2866  186.7727  161.7765 O   0  0  0  0  0  0  0  0  0  0  0  0
  195.1864  186.3806  160.8105 C   0  0  0  0  0  0  0  0  0  0  0  0
  196.2288  187.2789  160.4974 C   0  0  0  0  0  0  0  0  0  0  0  0
  196.2651  188.4682  161.1963 O   0  0  0  0  0  0  0  0  0  0  0  0
  197.1377  189.4906  160.7279 C   0  0  0  0  0  0  0  0  0  0  0  0
  197.2061  186.9149  159.5369 C   0  0  0  0  0  0  0  0  0  0  0  0
  197.1540  185.6766  158.8799 C   0  0  0  0  0  0  0  0  0  0  0  0
  196.0952  184.7815  159.1858 C   0  0  0  0  0  0  0  0  0  0  0  0
  195.1163  185.1312  160.1373 C   0  0  0  0  0  0  0  0  0  0  0  0
  198.2470  185.3194  157.8694 C   0  0  0  0  0  0  0  0  0  0  0  0
  199.5469  184.9150  158.4486 N   0  0  0  0  0  0  0  0  0  0  0  0
  200.5704  184.6868  157.4206 C   0  0  0  0  0  0  0  0  0  0  0  0
  200.4212  183.4684  156.5212 C   0  0  0  0  0  0  0  0  0  0  0  0
  199.5330  182.4175  156.8556 C   0  0  0  0  0  0  0  0  0  0  0  0
  199.3837  181.3125  155.9937 C   0  0  0  0  0  0  0  0  0  0  0  0
  200.1717  181.2291  154.8207 C   0  0  0  0  0  0  0  0  0  0  0  0
  201.0865  182.2567  154.5041 C   0  0  0  0  0  0  0  0  0  0  0  0
  201.2002  183.3786  155.3505 C   0  0  0  0  0  0  0  0  0  0  0  0
  198.3615  180.2360  156.3392 C   0  0  0  0  0  0  0  0  0  0  0  0
  196.9504  180.6496  156.1165 N   0  0  0  0  0  0  0  0  0  0  0  0
  196.6146  180.8016  154.6816 C   0  0  0  0  0  0  0  0  0  0  0  0
  196.5019  181.8284  156.9022 C   0  0  0  0  0  0  0  0  0  0  0  0
  200.0766  185.9752  159.3120 C   0  0  0  0  0  0  0  0  0  0  0  0
  192.9318  186.4033  161.5927 C   0  0  0  0  0  0  0  0  0  0  0  0
  192.0023  187.4706  162.1174 C   0  0  0  0  0  0  0  0  0  0  0  0
  191.1384  188.1505  161.2365 C   0  0  0  0  0  0  0  0  0  0  0  0
  190.2673  189.1400  161.7277 C   0  0  0  0  0  0  0  0  0  0  0  0
  190.2609  189.4556  163.0995 C   0  0  0  0  0  0  0  0  0  0  0  0
  191.1231  188.7759  163.9817 C   0  0  0  0  0  0  0  0  0  0  0  0
  191.9909  187.7814  163.4922 C   0  0  0  0  0  0  0  0  0  0  0  0
  197.0467  190.3676  161.3643 H   0  0  0  0  0  0  0  0  0  0  0  0
  196.8668  189.7811  159.7107 H   0  0  0  0  0  0  0  0  0  0  0  0
  198.1875  189.1914  160.7342 H   0  0  0  0  0  0  0  0  0  0  0  0
  197.9700  187.6093  159.2457 H   0  0  0  0  0  0  0  0  0  0  0  0
  196.0339  183.8099  158.7064 H   0  0  0  0  0  0  0  0  0  0  0  0
  194.3171  184.4343  160.3625 H   0  0  0  0  0  0  0  0  0  0  0  0
  197.8701  184.5016  157.2602 H   0  0  0  0  0  0  0  0  0  0  0  0
  198.3867  186.1658  157.1884 H   0  0  0  0  0  0  0  0  0  0  0  0
  200.6572  185.5867  156.8067 H   0  0  0  0  0  0  0  0  0  0  0  0
  201.5282  184.5585  157.9246 H   0  0  0  0  0  0  0  0  0  0  0  0
  198.9844  182.4496  157.7836 H   0  0  0  0  0  0  0  0  0  0  0  0
  200.0740  180.3809  154.1517 H   0  0  0  0  0  0  0  0  0  0  0  0
  201.7012  182.1815  153.6181 H   0  0  0  0  0  0  0  0  0  0  0  0
  201.9041  184.1708  155.0979 H   0  0  0  0  0  0  0  0  0  0  0  0
  198.5642  179.3412  155.7469 H   0  0  0  0  0  0  0  0  0  0  0  0
  198.4902  179.9311  157.3768 H   0  0  0  0  0  0  0  0  0  0  0  0
  197.1910  181.6025  154.2109 H   0  0  0  0  0  0  0  0  0  0  0  0
  195.5763  181.0643  154.5610 H   0  0  0  0  0  0  0  0  0  0  0  0
  196.7897  179.8726  154.1301 H   0  0  0  0  0  0  0  0  0  0  0  0
  197.0793  182.7139  156.6193 H   0  0  0  0  0  0  0  0  0  0  0  0
  196.6277  181.6173  157.9685 H   0  0  0  0  0  0  0  0  0  0  0  0
  195.4328  182.0204  156.7364 H   0  0  0  0  0  0  0  0  0  0  0  0
  201.0940  185.7443  159.6850 H   0  0  0  0  0  0  0  0  0  0  0  0
  199.3885  186.1306  160.1345 H   0  0  0  0  0  0  0  0  0  0  0  0
  200.1374  186.9171  158.7490 H   0  0  0  0  0  0  0  0  0  0  0  0
  192.7145  186.2271  160.5373 H   0  0  0  0  0  0  0  0  0  0  0  0
  192.7454  185.4730  162.1175 H   0  0  0  0  0  0  0  0  0  0  0  0
  191.1442  187.9179  160.1818 H   0  0  0  0  0  0  0  0  0  0  0  0
  189.5951  189.6490  161.0531 H   0  0  0  0  0  0  0  0  0  0  0  0
  189.5796  190.2052  163.4730 H   0  0  0  0  0  0  0  0  0  0  0  0
  191.1070  189.0067  165.0370 H   0  0  0  0  0  0  0  0  0  0  0  0
  192.6497  187.2574  164.1700 H   0  0  0  0  0  0  0  0  0  0  0  0
  196.4028  179.8874  156.4910 H   0  0  0  0  0  0  0  0  0  0  0  0
  1  2  1  0
  1 24  1  0
  2  3  2  0
  2  9  1  0
  3  4  1  0
  3  6  1  0
  4  5  1  0
  5 31  1  0
  5 32  1  0
  5 33  1  0
  6  7  2  0
  6 34  1  0
  7  8  1  0
  7 10  1  0
  8  9  2  0
  8 35  1  0
  9 36  1  0
 10 11  1  0
 10 37  1  0
 10 38  1  0
 11 12  1  0
 11 23  1  0
 12 13  1  0
 12 39  1  0
 12 40  1  0
 13 14  2  0
 13 18  1  0
 14 15  1  0
 14 41  1  0
 15 16  2  0
 15 19  1  0
 16 17  1  0
 16 42  1  0
 17 18  2  0
 17 43  1  0
 18 44  1  0
 19 20  1  0
 19 45  1  0
 19 46  1  0
 20 21  1  0
 20 22  1  0
 20 63  1  0
 21 47  1  0
 21 48  1  0
 21 49  1  0
 22 50  1  0
 22 51  1  0
 22 52  1  0
 23 53  1  0
 23 54  1  0
 23 55  1  0
 24 25  1  0
 24 56  1  0
 24 57  1  0
 25 26  2  0
 25 30  1  0
 26 27  1  0
 26 58  1  0
 27 28  2  0
 27 59  1  0
 28 29  1  0
 28 60  1  0
 29 30  2  0
 29 61  1  0
 30 62  1  0
M  CHG  1  20   1
M  END
>  <s_epik_cmdline>  (59) 
J2VwaWtfcHl0aG9uJywgJy1waCcsICc3LjAwMDAwMCcsICctcGh0JywgJzIuMDAwMDAwJywgJy1tcycsICcxNicsICctdG4nLCAnOCcsICctbWEnLCAnMjAwJywgJy1pbWFlJywgJzxpbmZpbGUubWFlPicsICctb21hZScsICc8b3V0ZmlsZS5tYWU+Jw==

>  <s_epik_input>  (59) 
W2NIXTFbY0hdW2NIXVtjSF1bY0hdYzFbQ0gyXU9jMmMoT1tDSDNdKVtjSF1jKFtjSF1bY0hdMilbQ0gyXU4oW0NIM10pW0NIMl1jM1tjSF1jKFtjSF1bY0hdW2NIXTMpW0NIMl1OKFtDSDNdKVtDSDNd

>  <s_i_glide_gridfile>  (59) 
ATP-Grid

>  <s_lp_Force_Field>  (59) 
OPLS_2005

>  <s_lp_Variant>  (59) 
m_2230bbc____678300____18339498-3

>  <s_lp_label>  (59) 
1425_sdstereoexpander_1_neutralizer_1_epik_2_stereoizer_1

>  <s_m_source_file>  (59) 
ATP-VSW-LIGPREP-001-in.maegz

>  <s_sd_BIOSOLVEIT.INFINISEE\_QUERY\_NAME>  (59) 
Ref-Lig

>  <s_sd_BIOSOLVEIT.INFINISEE\_QUERY\_SMILES>  (59) 
S(c1nc2c(cc1C[NH2+]Cc3ccc(cc3)C[NH+](C)C)cccc2)Cc4ccccc4

>  <s_sd_BIOSOLVEIT.INFINISEE\_REACTION\_NAME>  (59) 
m_2230bbc

>  <s_sd_BIOSOLVEIT.INFINISEE\_REAGENT1\_SMILES>  (59) 
[R1*]N(Cc1cc(OC)c(OCc2ccccc2)cc1)C

>  <s_sd_BIOSOLVEIT.INFINISEE\_REAGENT2\_SMILES>  (59) 
[R1*]Cc1cc(ccc1)CN(C)C

>  <s_sd_BIOSOLVEIT.INFINISEE\_SPACE>  (59) 
REALSpace_44bn_2023-08

>  <s_vsw_compound_code>  (59) 
45569

>  <s_vsw_variant>  (59) 
45569-3

>  <r_epik_Charging_Adjusted_Penalty>  (59) 
0.90288849111998004

>  <r_epik_Ionization_Penalty>  (59) 
0.84919999999999995

>  <r_epik_Ionization_Penalty_Charging>  (59) 
0.0453

>  <r_epik_Ionization_Penalty_Neutral>  (59) 
0.80389999999999995

>  <r_epik_State_Penalty>  (59) 
0.85760000000000003

>  <r_i_docking_score>  (59) 
-5.4603031238114097

>  <r_i_glide_ecoul>  (59) 
-9.1371803283691406

>  <r_i_glide_eff_state_penalty>  (59) 
0.85760000000000003

>  <r_i_glide_einternal>  (59) 
6.3025922775268599

>  <r_i_glide_emodel>  (59) 
-65.366657672035103

>  <r_i_glide_energy>  (59) 
-43.967063903808601

>  <r_i_glide_erotb>  (59) 
0.95596695552106303

>  <r_i_glide_esite>  (59) 
-0.10000000000000001

>  <r_i_glide_evdw>  (59) 
-34.829883575439503

>  <r_i_glide_gscore>  (59) 
-6.3179031238113996

>  <r_i_glide_hbond>  (59) 
-0.20000000000000001

>  <r_i_glide_ligand_efficiency>  (59) 
-0.18201010412704699

>  <r_i_glide_ligand_efficiency_ln>  (59) 
-1.24064036449764

>  <r_i_glide_ligand_efficiency_sa>  (59) 
-0.56554771131442705

>  <r_i_glide_lipo>  (59) 
-2.9928380785778499

>  <r_i_glide_metal>  (59) 
-0

>  <r_i_glide_rewards>  (59) 
-0.86896077272727101

>  <r_lp_Energy>  (59) 
26.471533999999998

>  <r_lp_tautomer_probability>  (59) 
1

>  <r_qp_ACxDN^.5/SA>  (59) 
0

>  <r_qp_CIQPlogS>  (59) 
-4.0960000000000001

>  <r_qp_EA(eV)>  (59) 
-0.253

>  <r_qp_FISA>  (59) 
0.95299999999999996

>  <r_qp_FOSA>  (59) 
334.99599999999998

>  <r_qp_IP(eV)>  (59) 
8.3569999999999993

>  <r_qp_Jm>  (59) 
1.1812857381656201

>  <r_qp_PISA>  (59) 
336.79599999999999

>  <r_qp_PSA>  (59) 
23.859999999999999

>  <r_qp_PercentHumanOralAbsorption>  (59) 
100

>  <r_qp_QPPCaco>  (59) 
603.48599999999999

>  <r_qp_QPPMDCK>  (59) 
350.78100000000001

>  <r_qp_QPlogBB>  (59) 
0.749

>  <r_qp_QPlogHERG>  (59) 
-6.8479999999999999

>  <r_qp_QPlogKhsa>  (59) 
0.52400000000000002

>  <r_qp_QPlogKp>  (59) 
-3.516

>  <r_qp_QPlogPC16>  (59) 
12.733000000000001

>  <r_qp_QPlogPo/w>  (59) 
4.4939999999999998

>  <r_qp_QPlogPoct>  (59) 
16.763000000000002

>  <r_qp_QPlogPw>  (59) 
6.8470000000000004

>  <r_qp_QPlogS>  (59) 
-2.0190000000000001

>  <r_qp_QPpolrz>  (59) 
43.052

>  <r_qp_SASA>  (59) 
672.74400000000003

>  <r_qp_SAamideO>  (59) 
0

>  <r_qp_SAfluorine>  (59) 
0

>  <r_qp_WPSA>  (59) 
0

>  <r_qp_accptHB>  (59) 
5.5

>  <r_qp_dip^2/V>  (59) 
0.0022664

>  <r_qp_dipole>  (59) 
1.7230000000000001

>  <r_qp_donorHB>  (59) 
0

>  <r_qp_glob>  (59) 
0.86048899999999995

>  <r_qp_mol_MW>  (59) 
404.55099999999999

>  <r_qp_volume>  (59) 
1309.6179999999999

>  <r_sd_BIOSOLVEIT.INFINISEE\_FTREES\_SIMILARITY>  (59) 
0.90800000000000003

>  <r_sd_BIOSOLVEIT.LOGP>  (59) 
2.1335999999999999

>  <r_sd_BIOSOLVEIT.MOLECULAR\_WEIGHT>  (59) 
406.56700000000001

>  <r_sd_BIOSOLVEIT.TPSA>  (59) 
27.34

>  <i_epik_Tot_Q>  (59) 
1

>  <i_epik_Tot_abs_Q>  (59) 
1

>  <i_f3d_flags>  (59) 
0

>  <i_i_glide_confnum>  (59) 
3

>  <i_i_glide_lignum>  (59) 
374

>  <i_i_glide_posenum>  (59) 
3

>  <i_i_glide_rotatable_bonds>  (59) 
10

>  <i_lp_mmshare_version>  (59) 
65135

>  <i_m_ct_format>  (59) 
2

>  <i_m_source_file_index>  (59) 
1425

>  <i_qp_#NandO>  (59) 
4

>  <i_qp_#acid>  (59) 
0

>  <i_qp_#amide>  (59) 
0

>  <i_qp_#amidine>  (59) 
0

>  <i_qp_#amine>  (59) 
2

>  <i_qp_#in34>  (59) 
0

>  <i_qp_#in56>  (59) 
18

>  <i_qp_#metab>  (59) 
8

>  <i_qp_#nonHatm>  (59) 
30

>  <i_qp_#noncon>  (59) 
0

>  <i_qp_#ringatoms>  (59) 
18

>  <i_qp_#rotor>  (59) 
10

>  <i_qp_#rtvFG>  (59) 
0

>  <i_qp_#stars>  (59) 
1

>  <i_qp_CNS>  (59) 
2

>  <i_qp_HumanOralAbsorption>  (59) 
3

>  <i_qp_RuleOfFive>  (59) 
0

>  <i_qp_RuleOfThree>  (59) 
1

>  <i_sd_BIOSOLVEIT.INFINISEE\_REAGENT1\_NAME>  (59) 
678300

>  <i_sd_BIOSOLVEIT.INFINISEE\_REAGENT2\_NAME>  (59) 
18339498

>  <i_sd_BIOSOLVEIT.INFINISEE\_RESULT\_RANK>  (59) 
54427

>  <i_sd_version>  (59) 
0

>  <b_lp_Chiralities_Consistent>  (59) 
1

>  <b_sd_chiral_flag>  (59) 
0

>  <canonical_id>  (59) 
ATP-HTVS-800B0B068CC6

>  <compound_code>  (59) 
45569

>  <title>  (59) 
m_2230bbc____678300____18339498

>  <variant>  (59) 
45569-3

>  <source_file>  (59) 
运行/运行/ATP-VSW/ATP-VSW-DOCK_HTVS_1-001_lib/ATP-VSW-DOCK_HTVS_1-001_lib

>  <canonical_smiles>  (59) 
COc1cc(CN(C)Cc2cccc(C[NH+](C)C)c2)ccc1OCc1ccccc1

>  <scaffold>  (59) 
c1ccc(CNCc2ccc(OCc3ccccc3)cc2)cc1

>  <molecular_formula>  (59) 
C26H33N2O2+

>  <acquisition_id_v2>  (59) 
ATP-ACQ2-0059

>  <selection_arm_v2>  (59) 
local_structure_bridge

>  <priority_v2>  (59) 
P1

$$$$
ATP-ACQ2-0060
     RDKit          3D

 49 52  0  0  0  0  0  0  0  0999 V2000
  196.3125  187.8053  160.5673 O   0  0  0  0  0  0  0  0  0  0  0  0
  196.4633  186.8193  159.8471 C   0  0  0  0  0  0  0  0  0  0  0  0
  195.5097  185.8705  159.8737 N   0  0  0  0  0  0  0  0  0  0  0  0
  195.5385  184.6627  159.1559 C   0  0  0  0  0  0  0  0  0  0  0  0
  196.6508  184.3909  158.3333 C   0  0  0  0  0  0  0  0  0  0  0  0
  196.6638  183.1640  157.6206 C   0  0  0  0  0  0  0  0  0  0  0  0
  195.6011  182.2472  157.7521 C   0  0  0  0  0  0  0  0  0  0  0  0
  194.5031  182.5412  158.5799 C   0  0  0  0  0  0  0  0  0  0  0  0
  194.4670  183.7599  159.2806 C   0  0  0  0  0  0  0  0  0  0  0  0
  197.7234  185.4259  158.2550 C   0  0  0  0  0  0  0  0  0  0  0  0
  197.6311  186.5981  158.9633 C   0  0  0  0  0  0  0  0  0  0  0  0
  198.7167  187.6154  158.9542 C   0  0  0  0  0  0  0  0  0  0  0  0
  200.0528  187.2227  159.3382 C   0  0  0  0  0  0  0  0  0  0  0  0
  201.0699  188.2058  159.3029 C   0  0  0  0  0  0  0  0  0  0  0  0
  200.8034  189.5351  158.9301 C   0  0  0  0  0  0  0  0  0  0  0  0
  199.4798  189.9133  158.5837 C   0  0  0  0  0  0  0  0  0  0  0  0
  198.4289  188.9632  158.5860 C   0  0  0  0  0  0  0  0  0  0  0  0
  201.9480  190.5113  158.9396 C   0  0  0  0  0  0  0  0  0  0  0  0
  198.8929  185.1059  157.3184 C   0  0  0  0  0  0  0  0  0  0  0  0
  199.8576  184.0274  157.8162 C   0  0  0  0  0  0  0  0  0  0  0  0
  200.2091  183.9148  159.1905 C   0  0  0  0  0  0  0  0  0  0  0  0
  201.2580  183.0582  159.5805 C   0  0  0  0  0  0  0  0  0  0  0  0
  201.6888  183.1356  160.9009 N   0  0  0  0  0  0  0  0  0  0  0  0
  202.6771  182.2328  161.4500 C   0  0  0  0  0  0  0  0  0  0  0  0
  201.8386  182.1623  158.6405 C   0  0  0  0  0  0  0  0  0  0  0  0
  201.3850  182.1851  157.3025 C   0  0  0  0  0  0  0  0  0  0  0  0
  200.4349  183.1388  156.8735 C   0  0  0  0  0  0  0  0  0  0  0  0
  194.7034  186.0472  160.4581 H   0  0  0  0  0  0  0  0  0  0  0  0
  197.4758  182.9033  156.9592 H   0  0  0  0  0  0  0  0  0  0  0  0
  195.6136  181.3185  157.2003 H   0  0  0  0  0  0  0  0  0  0  0  0
  193.6908  181.8361  158.6682 H   0  0  0  0  0  0  0  0  0  0  0  0
  193.6252  183.9911  159.9180 H   0  0  0  0  0  0  0  0  0  0  0  0
  200.3442  186.2728  159.6861 H   0  0  0  0  0  0  0  0  0  0  0  0
  202.0539  187.8789  159.5692 H   0  0  0  0  0  0  0  0  0  0  0  0
  199.2604  190.9561  158.3158 H   0  0  0  0  0  0  0  0  0  0  0  0
  197.4123  189.2567  158.3178 H   0  0  0  0  0  0  0  0  0  0  0  0
  201.6300  191.4574  158.4774 H   0  0  0  0  0  0  0  0  0  0  0  0
  202.7907  190.0864  158.3797 H   0  0  0  0  0  0  0  0  0  0  0  0
  202.2621  190.6803  159.9782 H   0  0  0  0  0  0  0  0  0  0  0  0
  198.4894  184.8489  156.3369 H   0  0  0  0  0  0  0  0  0  0  0  0
  199.4745  186.0018  157.0938 H   0  0  0  0  0  0  0  0  0  0  0  0
  199.7232  184.5258  159.9441 H   0  0  0  0  0  0  0  0  0  0  0  0
  201.2516  183.7862  161.5498 H   0  0  0  0  0  0  0  0  0  0  0  0
  202.8074  182.4163  162.5187 H   0  0  0  0  0  0  0  0  0  0  0  0
  203.6347  182.3810  160.9525 H   0  0  0  0  0  0  0  0  0  0  0  0
  202.3536  181.2011  161.3147 H   0  0  0  0  0  0  0  0  0  0  0  0
  202.5704  181.4240  158.9488 H   0  0  0  0  0  0  0  0  0  0  0  0
  201.7638  181.4478  156.5965 H   0  0  0  0  0  0  0  0  0  0  0  0
  200.1097  183.1565  155.8420 H   0  0  0  0  0  0  0  0  0  0  0  0
  1  2  2  0
  2  3  1  0
  2 11  1  0
  3  4  1  0
  3 28  1  0
  4  5  1  0
  4  9  2  0
  5  6  2  0
  5 10  1  0
  6  7  1  0
  6 29  1  0
  7  8  2  0
  7 30  1  0
  8  9  1  0
  8 31  1  0
  9 32  1  0
 10 11  2  0
 10 19  1  0
 11 12  1  0
 12 13  1  0
 12 17  2  0
 13 14  2  0
 13 33  1  0
 14 15  1  0
 14 34  1  0
 15 16  2  0
 15 18  1  0
 16 17  1  0
 16 35  1  0
 17 36  1  0
 18 37  1  0
 18 38  1  0
 18 39  1  0
 19 20  1  0
 19 40  1  0
 19 41  1  0
 20 21  1  0
 20 27  2  0
 21 22  2  0
 21 42  1  0
 22 23  1  0
 22 25  1  0
 23 24  1  0
 23 43  1  0
 24 44  1  0
 24 45  1  0
 24 46  1  0
 25 26  2  0
 25 47  1  0
 26 27  1  0
 26 48  1  0
 27 49  1  0
M  END
>  <s_epik_cmdline>  (60) 
J2VwaWtfcHl0aG9uJywgJy1waCcsICc3LjAwMDAwMCcsICctcGh0JywgJzIuMDAwMDAwJywgJy1tcycsICcxNicsICctdG4nLCAnOCcsICctbWEnLCAnMjAwJywgJy1pbWFlJywgJzxpbmZpbGUubWFlPicsICctb21hZScsICc8b3V0ZmlsZS5tYWU+Jw==

>  <s_epik_input>  (60) 
W2NIXTFbY0hdYyhbQ0gzXSlbY0hdW2NIXWMxLWMoYyg9TylbbkhdMiljKGMoYzIzKVtjSF1bY0hdW2NIXVtjSF0zKVtDSDJdYzRbY0hdYyhbTkhdW0NIM10pW2NIXVtjSF1bY0hdNA==

>  <s_i_glide_gridfile>  (60) 
ATP-Grid

>  <s_lp_Force_Field>  (60) 
OPLS_2005

>  <s_lp_Variant>  (60) 
rxn112____EMOL42620905____EMOL45491381-1

>  <s_lp_label>  (60) 
2881_sdstereoexpander_1_neutralizer_1_epik_1_stereoizer_1

>  <s_m_source_file>  (60) 
ATP-VSW-LIGPREP-001-in.maegz

>  <s_sd_BIOSOLVEIT.INFINISEE\_QUERY\_NAME>  (60) 
Ref-Lig

>  <s_sd_BIOSOLVEIT.INFINISEE\_QUERY\_SMILES>  (60) 
S(c1nc2c(cc1C[NH2+]Cc3ccc(cc3)C[NH+](C)C)cccc2)Cc4ccccc4

>  <s_sd_BIOSOLVEIT.INFINISEE\_REACTION\_NAME>  (60) 
rxn112

>  <s_sd_BIOSOLVEIT.INFINISEE\_REAGENT1\_NAME>  (60) 
EMOL42620905

>  <s_sd_BIOSOLVEIT.INFINISEE\_REAGENT1\_SMILES>  (60) 
O=C(O)C=1c2c(NC(=O)C1c3ccc(cc3)C)cccc2

>  <s_sd_BIOSOLVEIT.INFINISEE\_REAGENT2\_NAME>  (60) 
EMOL45491381

>  <s_sd_BIOSOLVEIT.INFINISEE\_REAGENT2\_SMILES>  (60) 
N(c1cc(ccc1)CN)C

>  <s_sd_BIOSOLVEIT.INFINISEE\_SPACE>  (60) 
eXplore_7tr_2022-12

>  <s_vsw_compound_code>  (60) 
92161

>  <s_vsw_variant>  (60) 
92161-1

>  <r_epik_Charging_Adjusted_Penalty>  (60) 
0.0020199448972288898

>  <r_epik_Ionization_Penalty>  (60) 
0.002

>  <r_epik_Ionization_Penalty_Charging>  (60) 
0

>  <r_epik_Ionization_Penalty_Neutral>  (60) 
0.002

>  <r_epik_State_Penalty>  (60) 
0.002

>  <r_i_docking_score>  (60) 
-1.9075323465839999

>  <r_i_glide_ecoul>  (60) 
-0.69103157520294201

>  <r_i_glide_eff_state_penalty>  (60) 
0.002

>  <r_i_glide_einternal>  (60) 
0.85801213979721103

>  <r_i_glide_emodel>  (60) 
-34.281408425493197

>  <r_i_glide_energy>  (60) 
-31.159459233284

>  <r_i_glide_erotb>  (60) 
0.45630867521910501

>  <r_i_glide_esite>  (60) 
0

>  <r_i_glide_evdw>  (60) 
-30.468427658081101

>  <r_i_glide_gscore>  (60) 
-1.909532346584

>  <r_i_glide_hbond>  (60) 
-0.16599898641604599

>  <r_i_glide_ligand_efficiency>  (60) 
-0.070649346169777597

>  <r_i_glide_ligand_efficiency_ln>  (60) 
-0.44404208215621599

>  <r_i_glide_ligand_efficiency_sa>  (60) 
-0.21194803827648401

>  <r_i_glide_lipo>  (60) 
-1.2895336643499

>  <r_i_glide_metal>  (60) 
-0

>  <r_i_glide_rewards>  (60) 
0.71676774814733701

>  <r_lp_Energy>  (60) 
36.493664000000003

>  <r_qp_ACxDN^.5/SA>  (60) 
0.0075973000000000004

>  <r_qp_CIQPlogS>  (60) 
-6.226

>  <r_qp_EA(eV)>  (60) 
0.754

>  <r_qp_FISA>  (60) 
91.122

>  <r_qp_FOSA>  (60) 
200.815

>  <r_qp_IP(eV)>  (60) 
8.0749999999999993

>  <r_qp_Jm>  (60) 
0.0092371499031273993

>  <r_qp_PISA>  (60) 
359.57999999999998

>  <r_qp_PSA>  (60) 
54.380000000000003

>  <r_qp_PercentHumanOralAbsorption>  (60) 
100

>  <r_qp_QPPCaco>  (60) 
1354.529

>  <r_qp_QPPMDCK>  (60) 
686.74800000000005

>  <r_qp_QPlogBB>  (60) 
-0.56799999999999995

>  <r_qp_QPlogHERG>  (60) 
-6.0640000000000001

>  <r_qp_QPlogKhsa>  (60) 
0.879

>  <r_qp_QPlogKp>  (60) 
-1.548

>  <r_qp_QPlogPC16>  (60) 
12.749000000000001

>  <r_qp_QPlogPo/w>  (60) 
4.7750000000000004

>  <r_qp_QPlogPoct>  (60) 
18.969999999999999

>  <r_qp_QPlogPw>  (60) 
9.8469999999999995

>  <r_qp_QPlogS>  (60) 
-6.0359999999999996

>  <r_qp_QPpolrz>  (60) 
41.677

>  <r_qp_SASA>  (60) 
651.51700000000005

>  <r_qp_SAamideO>  (60) 
0

>  <r_qp_SAfluorine>  (60) 
0

>  <r_qp_WPSA>  (60) 
0

>  <r_qp_accptHB>  (60) 
3.5

>  <r_qp_dip^2/V>  (60) 
0.028708299999999999

>  <r_qp_dipole>  (60) 
5.8040000000000003

>  <r_qp_donorHB>  (60) 
2

>  <r_qp_glob>  (60) 
0.82586610000000005

>  <r_qp_mol_MW>  (60) 
354.45100000000002

>  <r_qp_volume>  (60) 
1173.5599999999999

>  <r_sd_BIOSOLVEIT.INFINISEE\_FTREES\_SIMILARITY>  (60) 
0.90500000000000003

>  <r_sd_BIOSOLVEIT.LOGP>  (60) 
5.1360200000000003

>  <r_sd_BIOSOLVEIT.MOLECULAR\_WEIGHT>  (60) 
354.45100000000002

>  <r_sd_BIOSOLVEIT.TPSA>  (60) 
44.890000000000001

>  <i_epik_Tot_Q>  (60) 
0

>  <i_epik_Tot_abs_Q>  (60) 
0

>  <i_f3d_flags>  (60) 
0

>  <i_i_glide_confnum>  (60) 
4

>  <i_i_glide_lignum>  (60) 
1328

>  <i_i_glide_posenum>  (60) 
8

>  <i_i_glide_rotatable_bonds>  (60) 
4

>  <i_lp_mmshare_version>  (60) 
65135

>  <i_m_ct_format>  (60) 
2

>  <i_m_source_file_index>  (60) 
2881

>  <i_qp_#NandO>  (60) 
3

>  <i_qp_#acid>  (60) 
0

>  <i_qp_#amide>  (60) 
0

>  <i_qp_#amidine>  (60) 
0

>  <i_qp_#amine>  (60) 
0

>  <i_qp_#in34>  (60) 
0

>  <i_qp_#in56>  (60) 
22

>  <i_qp_#metab>  (60) 
4

>  <i_qp_#nonHatm>  (60) 
27

>  <i_qp_#noncon>  (60) 
0

>  <i_qp_#ringatoms>  (60) 
22

>  <i_qp_#rotor>  (60) 
4

>  <i_qp_#rtvFG>  (60) 
0

>  <i_qp_#stars>  (60) 
0

>  <i_qp_CNS>  (60) 
0

>  <i_qp_HumanOralAbsorption>  (60) 
3

>  <i_qp_RuleOfFive>  (60) 
0

>  <i_qp_RuleOfThree>  (60) 
1

>  <i_sd_BIOSOLVEIT.INFINISEE\_RESULT\_RANK>  (60) 
72606

>  <i_sd_version>  (60) 
0

>  <b_lp_Chiralities_Consistent>  (60) 
1

>  <b_sd_chiral_flag>  (60) 
0

>  <canonical_id>  (60) 
ATP-HTVS-9BFBB44B9744

>  <compound_code>  (60) 
92161

>  <title>  (60) 
rxn112____EMOL42620905____EMOL45491381

>  <variant>  (60) 
92161-1

>  <source_file>  (60) 
运行/运行/ATP-VSW/ATP-VSW-DOCK_HTVS_1-001_lib/ATP-VSW-DOCK_HTVS_1-001_lib

>  <canonical_smiles>  (60) 
CNc1cccc(Cc2c(-c3ccc(C)cc3)c(=O)[nH]c3ccccc23)c1

>  <scaffold>  (60) 
O=c1[nH]c2ccccc2c(Cc2ccccc2)c1-c1ccccc1

>  <molecular_formula>  (60) 
C24H22N2O

>  <acquisition_id_v2>  (60) 
ATP-ACQ2-0060

>  <selection_arm_v2>  (60) 
scaffold_score_exploration

>  <priority_v2>  (60) 
P1

$$$$
