ATP-ACQ-0001
     RDKit          3D

 60 62  0  0  0  0  0  0  0  0999 V2000
  197.0565  185.5114  159.7188 S   0  0  0  0  0  0  0  0  0  0  0  0
  195.3677  185.0545  159.8569 C   0  0  0  0  0  0  0  0  0  0  0  0
  195.1177  183.8031  159.4738 N   0  0  0  0  0  0  0  0  0  0  0  0
  196.2717  183.1359  159.0632 C   0  0  0  0  0  0  0  0  0  0  0  0
  197.4062  183.9057  159.1642 C   0  0  0  0  0  0  0  0  0  0  0  0
  196.1835  181.7389  158.5373 C   0  0  1  0  0  0  0  0  0  0  0  0
  195.9933  181.7409  157.0760 N   0  0  1  0  0  0  0  0  0  0  0  0
  197.1678  182.1842  156.2975 C   0  0  1  0  0  0  0  0  0  0  0  0
  197.1558  181.6184  154.8833 C   0  0  0  0  0  0  0  0  0  0  0  0
  197.4963  180.2648  154.5907 C   0  0  0  0  0  0  0  0  0  0  0  0
  197.3991  179.8192  153.2521 C   0  0  0  0  0  0  0  0  0  0  0  0
  197.0489  180.7013  152.2133 C   0  0  0  0  0  0  0  0  0  0  0  0
  197.0132  180.2568  150.9316 F   0  0  0  0  0  0  0  0  0  0  0  0
  196.7449  182.0397  152.5020 C   0  0  0  0  0  0  0  0  0  0  0  0
  196.7835  182.4897  153.8328 C   0  0  0  0  0  0  0  0  0  0  0  0
  197.9459  179.2639  155.6693 C   0  0  1  0  0  0  0  0  0  0  0  0
  199.4262  179.0545  155.7146 N   0  0  1  0  0  0  0  0  0  0  0  0
  199.8796  178.4890  157.0175 C   0  0  1  0  0  0  0  0  0  0  0  0
  201.4002  178.5668  157.2400 C   0  0  2  0  0  0  0  0  0  0  0  0
  199.9345  178.2635  154.5620 C   0  0  2  0  0  0  0  0  0  0  0  0
  194.3159  185.9878  160.3475 C   0  0  1  0  0  0  0  0  0  0  0  0
  194.5599  186.2362  161.7269 O   0  0  0  0  0  0  0  0  0  0  0  0
  193.7166  187.1335  162.3199 C   0  0  0  0  0  0  0  0  0  0  0  0
  192.6935  186.6927  163.1904 C   0  0  0  0  0  0  0  0  0  0  0  0
  191.8851  187.6378  163.8581 C   0  0  0  0  0  0  0  0  0  0  0  0
  192.0528  189.0235  163.6531 C   0  0  0  0  0  0  0  0  0  0  0  0
  191.2413  189.8994  164.3259 O   0  0  0  0  0  0  0  0  0  0  0  0
  191.3965  191.2913  164.0759 C   0  0  2  0  0  0  0  0  0  0  0  0
  193.0751  189.4509  162.7597 C   0  0  0  0  0  0  0  0  0  0  0  0
  193.8983  188.5059  162.1302 C   0  0  0  0  0  0  0  0  0  0  0  0
  195.8351  180.7576  156.8909 H   0  0  0  0  0  0  0  0  0  0  0  0
  198.4163  183.6377  158.9041 H   0  0  0  0  0  0  0  0  0  0  0  0
  197.0808  181.1697  158.7768 H   0  0  0  0  0  0  0  0  0  0  0  0
  195.3647  181.1898  158.9987 H   0  0  0  0  0  0  0  0  0  0  0  0
  197.1682  183.2793  156.2695 H   0  0  0  0  0  0  0  0  0  0  0  0
  198.1079  181.8943  156.7720 H   0  0  0  0  0  0  0  0  0  0  0  0
  197.6036  178.7922  152.9934 H   0  0  0  0  0  0  0  0  0  0  0  0
  196.4545  182.7171  151.7085 H   0  0  0  0  0  0  0  0  0  0  0  0
  196.5136  183.5137  154.0403 H   0  0  0  0  0  0  0  0  0  0  0  0
  197.6076  179.6185  156.6388 H   0  0  0  0  0  0  0  0  0  0  0  0
  197.4335  178.3096  155.5287 H   0  0  0  0  0  0  0  0  0  0  0  0
  199.4079  179.0417  157.8285 H   0  0  0  0  0  0  0  0  0  0  0  0
  199.5502  177.4533  157.1081 H   0  0  0  0  0  0  0  0  0  0  0  0
  201.6625  178.1337  158.2088 H   0  0  0  0  0  0  0  0  0  0  0  0
  201.7395  179.6021  157.2393 H   0  0  0  0  0  0  0  0  0  0  0  0
  201.9663  178.0162  156.4880 H   0  0  0  0  0  0  0  0  0  0  0  0
  199.4762  177.2705  154.5681 H   0  0  0  0  0  0  0  0  0  0  0  0
  201.0198  178.1363  154.5842 H   0  0  0  0  0  0  0  0  0  0  0  0
  199.7098  178.7439  153.6076 H   0  0  0  0  0  0  0  0  0  0  0  0
  194.3478  186.9057  159.7625 H   0  0  0  0  0  0  0  0  0  0  0  0
  193.3318  185.5395  160.2323 H   0  0  0  0  0  0  0  0  0  0  0  0
  192.5523  185.6395  163.3696 H   0  0  0  0  0  0  0  0  0  0  0  0
  191.1450  187.3101  164.5584 H   0  0  0  0  0  0  0  0  0  0  0  0
  190.7046  191.8925  164.6615 H   0  0  0  0  0  0  0  0  0  0  0  0
  191.2101  191.5093  163.0283 H   0  0  0  0  0  0  0  0  0  0  0  0
  192.3919  191.6141  164.3595 H   0  0  0  0  0  0  0  0  0  0  0  0
  193.2746  190.5031  162.5329 H   0  0  0  0  0  0  0  0  0  0  0  0
  194.6676  188.8431  161.4421 H   0  0  0  0  0  0  0  0  0  0  0  0
  199.8268  179.9766  155.6639 H   0  0  0  0  0  0  0  0  0  0  0  0
  195.1609  182.2429  156.7904 H   0  0  0  0  0  0  0  0  0  0  0  0
  1  2  1  0
  1  5  1  0
  2  3  2  0
  2 21  1  0
  3  4  1  0
  4  5  2  0
  4  6  1  0
  5 32  1  0
  6  7  1  0
  6 33  1  6
  6 34  1  0
  7  8  1  0
  7 31  1  6
  7 60  1  0
  8  9  1  0
  8 35  1  6
  8 36  1  0
  9 10  2  0
  9 15  1  0
 10 11  1  0
 10 16  1  0
 11 12  2  0
 11 37  1  0
 12 13  1  0
 12 14  1  0
 14 15  2  0
 14 38  1  0
 15 39  1  0
 16 17  1  0
 16 40  1  1
 16 41  1  0
 17 18  1  0
 17 20  1  0
 17 59  1  6
 18 19  1  0
 18 42  1  1
 18 43  1  0
 19 44  1  1
 19 45  1  0
 19 46  1  0
 20 47  1  6
 20 48  1  0
 20 49  1  0
 21 22  1  0
 21 50  1  6
 21 51  1  0
 22 23  1  0
 23 24  1  0
 23 30  2  0
 24 25  2  0
 24 52  1  0
 25 26  1  0
 25 53  1  0
 26 27  1  0
 26 29  2  0
 27 28  1  0
 28 54  1  1
 28 55  1  0
 28 56  1  0
 29 30  1  0
 29 57  1  0
 30 58  1  0
M  CHG  2   7   1  17   1
M  END
>  <s_epik_cmdline>  (1) 
J2VwaWtfcHl0aG9uJywgJy1waCcsICc3LjAwMDAwMCcsICctcGh0JywgJzIuMDAwMDAwJywgJy1tcycsICcxNicsICctdG4nLCAnOCcsICctbWEnLCAnMjAwJywgJy1pbWFlJywgJzxpbmZpbGUubWFlPicsICctb21hZScsICc8b3V0ZmlsZS5tYWU+Jw==

>  <s_epik_input>  (1) 
W0NIM11PYyhbY0hdW2NIXTEpW2NIXVtjSF1jMU9bQ0gyXWMyc1tjSF1jKG4yKVtDSDJdW05IXVtDSDJdYzNjKFtjSF1jKEYpW2NIXVtjSF0zKVtDSDJdTihbQ0gzXSlbQ0gyXVtDSDNd

>  <s_i_glide_gridfile>  (1) 
ATP-Grid

>  <s_lp_Force_Field>  (1) 
OPLS_2005

>  <s_lp_Variant>  (1) 
m_270004bbb____24792670____7548988-1

>  <s_lp_label>  (1) 
1379_sdstereoexpander_1_neutralizer_1_epik_1_stereoizer_1

>  <s_m_source_file>  (1) 
ATP-VSW-LIGPREP-002-in.maegz

>  <s_sd_BIOSOLVEIT.INFINISEE\_QUERY\_NAME>  (1) 
Ref-Lig

>  <s_sd_BIOSOLVEIT.INFINISEE\_QUERY\_SMILES>  (1) 
S(c1nc2c(cc1C[NH2+]Cc3ccc(cc3)C[NH+](C)C)cccc2)Cc4ccccc4

>  <s_sd_BIOSOLVEIT.INFINISEE\_REACTION\_NAME>  (1) 
m_270004bbb

>  <s_sd_BIOSOLVEIT.INFINISEE\_REAGENT1\_SMILES>  (1) 
[R1*]NCc1c(cc(F)cc1)CN(CC)C

>  <s_sd_BIOSOLVEIT.INFINISEE\_REAGENT2\_SMILES>  (1) 
[R1*]CC=1N=C(SC1)COc2ccc(OC)cc2

>  <s_sd_BIOSOLVEIT.INFINISEE\_SPACE>  (1) 
REALSpace_44bn_2023-08

>  <s_vsw_compound_code>  (1) 
44098

>  <s_vsw_variant>  (1) 
44098-1

>  <r_epik_Charging_Adjusted_Penalty>  (1) 
0.47514642973629001

>  <r_epik_Ionization_Penalty>  (1) 
0.23899999999999999

>  <r_epik_Ionization_Penalty_Charging>  (1) 
0.23899999999999999

>  <r_epik_Ionization_Penalty_Neutral>  (1) 
0

>  <r_epik_State_Penalty>  (1) 
0.23619999999999999

>  <r_i_docking_score>  (1) 
-6.7289102870080901

>  <r_i_glide_ecoul>  (1) 
-18.263252258300799

>  <r_i_glide_eff_state_penalty>  (1) 
0.23619999999999999

>  <r_i_glide_einternal>  (1) 
12.567302703857401

>  <r_i_glide_emodel>  (1) 
-91.086170915954398

>  <r_i_glide_energy>  (1) 
-58.038726806640597

>  <r_i_glide_erotb>  (1) 
0.96117231633538802

>  <r_i_glide_esite>  (1) 
-0.153333407566351

>  <r_i_glide_evdw>  (1) 
-39.775474548339801

>  <r_i_glide_gscore>  (1) 
-6.9651102870080903

>  <r_i_glide_hbond>  (1) 
-0.36320661323952602

>  <r_i_glide_ligand_efficiency>  (1) 
-0.22429700956693599

>  <r_i_glide_ligand_efficiency_ln>  (1) 
-1.5288817345580701

>  <r_i_glide_ligand_efficiency_sa>  (1) 
-0.69694295832448105

>  <r_i_glide_lipo>  (1) 
-1.6274739775753

>  <r_i_glide_metal>  (1) 
-0

>  <r_i_glide_rewards>  (1) 
-1.0540070388001901

>  <r_lp_Energy>  (1) 
23.150915999999999

>  <r_lp_tautomer_probability>  (1) 
1

>  <r_qp_ACxDN^.5/SA>  (1) 
0.0085348000000000004

>  <r_qp_CIQPlogS>  (1) 
-4.2679999999999998

>  <r_qp_EA(eV)>  (1) 
0.81799999999999995

>  <r_qp_FISA>  (1) 
18.178000000000001

>  <r_qp_FOSA>  (1) 
371.44499999999999

>  <r_qp_IP(eV)>  (1) 
8.6750000000000007

>  <r_qp_Jm>  (1) 
0.0071453683930328901

>  <r_qp_PISA>  (1) 
283.39999999999998

>  <r_qp_PSA>  (1) 
45.182000000000002

>  <r_qp_PercentHumanOralAbsorption>  (1) 
100

>  <r_qp_QPPCaco>  (1) 
414.303

>  <r_qp_QPPMDCK>  (1) 
713.90499999999997

>  <r_qp_QPlogBB>  (1) 
0.71999999999999997

>  <r_qp_QPlogHERG>  (1) 
-7.774

>  <r_qp_QPlogKhsa>  (1) 
0.60699999999999998

>  <r_qp_QPlogKp>  (1) 
-3.9249999999999998

>  <r_qp_QPlogPC16>  (1) 
13.486000000000001

>  <r_qp_QPlogPo/w>  (1) 
4.7089999999999996

>  <r_qp_QPlogPoct>  (1) 
19.518000000000001

>  <r_qp_QPlogPw>  (1) 
9.0749999999999993

>  <r_qp_QPlogS>  (1) 
-3.8540000000000001

>  <r_qp_QPpolrz>  (1) 
44.761000000000003

>  <r_qp_SASA>  (1) 
761.58900000000006

>  <r_qp_SAamideO>  (1) 
0

>  <r_qp_SAfluorine>  (1) 
46.972000000000001

>  <r_qp_WPSA>  (1) 
88.566000000000003

>  <r_qp_accptHB>  (1) 
6.5

>  <r_qp_dip^2/V>  (1) 
0.0054665

>  <r_qp_dipole>  (1) 
2.7480000000000002

>  <r_qp_donorHB>  (1) 
1

>  <r_qp_glob>  (1) 
0.78752089999999997

>  <r_qp_mol_MW>  (1) 
429.55099999999999

>  <r_qp_volume>  (1) 
1381.105

>  <r_sd_BIOSOLVEIT.INFINISEE\_FTREES\_SIMILARITY>  (1) 
0.90900000000000003

>  <r_sd_BIOSOLVEIT.LOGP>  (1) 
2.1680000000000001

>  <r_sd_BIOSOLVEIT.MOLECULAR\_WEIGHT>  (1) 
431.572

>  <r_sd_BIOSOLVEIT.TPSA>  (1) 
52.399999999999999

>  <i_epik_Tot_Q>  (1) 
2

>  <i_epik_Tot_abs_Q>  (1) 
2

>  <i_f3d_flags>  (1) 
0

>  <i_i_glide_confnum>  (1) 
8

>  <i_i_glide_lignum>  (1) 
481

>  <i_i_glide_posenum>  (1) 
7

>  <i_i_glide_rotatable_bonds>  (1) 
11

>  <i_lp_mmshare_version>  (1) 
65135

>  <i_m_ct_format>  (1) 
2

>  <i_m_source_file_index>  (1) 
1379

>  <i_qp_#NandO>  (1) 
5

>  <i_qp_#acid>  (1) 
0

>  <i_qp_#amide>  (1) 
0

>  <i_qp_#amidine>  (1) 
0

>  <i_qp_#amine>  (1) 
2

>  <i_qp_#in34>  (1) 
0

>  <i_qp_#in56>  (1) 
17

>  <i_qp_#metab>  (1) 
9

>  <i_qp_#nonHatm>  (1) 
30

>  <i_qp_#noncon>  (1) 
0

>  <i_qp_#ringatoms>  (1) 
17

>  <i_qp_#rotor>  (1) 
11

>  <i_qp_#rtvFG>  (1) 
0

>  <i_qp_#stars>  (1) 
1

>  <i_qp_CNS>  (1) 
2

>  <i_qp_HumanOralAbsorption>  (1) 
3

>  <i_qp_RuleOfFive>  (1) 
0

>  <i_qp_RuleOfThree>  (1) 
1

>  <i_sd_BIOSOLVEIT.INFINISEE\_REAGENT1\_NAME>  (1) 
24792670

>  <i_sd_BIOSOLVEIT.INFINISEE\_REAGENT2\_NAME>  (1) 
7548988

>  <i_sd_BIOSOLVEIT.INFINISEE\_RESULT\_RANK>  (1) 
51332

>  <i_sd_version>  (1) 
0

>  <b_lp_Chiralities_Consistent>  (1) 
1

>  <b_sd_chiral_flag>  (1) 
0

>  <acquisition_id>  (1) 
ATP-ACQ-0001

>  <canonical_id>  (1) 
ATP-HTVS-66618B00A972

>  <compound_code>  (1) 
44098

>  <title>  (1) 
m_270004bbb____24792670____7548988

>  <variant>  (1) 
44098-1

>  <selection_arm>  (1) 
exploitation

>  <priority>  (1) 
P0

>  <wave>  (1) 
1

>  <source_file>  (1) 
运行/运行/ATP-VSW/ATP-VSW-DOCK_HTVS_1-002_lib.maegz

>  <canonical_smiles>  (1) 
CC[N@@H+](C)Cc1cc(F)ccc1C[NH2+]Cc1csc(COc2ccc(OC)cc2)n1

$$$$
ATP-ACQ-0002
     RDKit          3D

 42 45  0  0  0  0  0  0  0  0999 V2000
  196.3505  179.8453  149.9388 Cl  0  0  0  0  0  0  0  0  0  0  0  0
  196.6288  180.2817  151.5882 C   0  0  0  0  0  0  0  0  0  0  0  0
  196.9450  179.2856  152.5312 C   0  0  0  0  0  0  0  0  0  0  0  0
  197.1132  179.6217  153.8893 C   0  0  0  0  0  0  0  0  0  0  0  0
  197.0439  180.9653  154.3040 C   0  0  0  0  0  0  0  0  0  0  0  0
  196.7470  181.9685  153.3468 C   0  0  0  0  0  0  0  0  0  0  0  0
  196.5249  181.6242  151.9982 C   0  0  0  0  0  0  0  0  0  0  0  0
  197.2829  181.3174  155.7720 C   0  0  1  0  0  0  0  0  0  0  0  0
  198.6978  181.6740  156.1152 N   0  0  0  0  0  0  0  0  0  0  0  0
  199.0034  182.4643  157.1801 C   0  0  0  0  0  0  0  0  0  0  0  0
  200.1576  182.7297  157.5275 O   0  0  0  0  0  0  0  0  0  0  0  0
  197.8464  182.9958  157.9782 C   0  0  0  0  0  0  0  0  0  0  0  0
  196.5405  182.9315  157.4370 C   0  0  0  0  0  0  0  0  0  0  0  0
  196.3490  182.3478  156.1917 N   0  0  0  0  0  0  0  0  0  0  0  0
  195.4481  183.4612  158.1506 C   0  0  0  0  0  0  0  0  0  0  0  0
  195.6430  184.0518  159.4104 C   0  0  0  0  0  0  0  0  0  0  0  0
  196.9361  184.1099  159.9617 C   0  0  0  0  0  0  0  0  0  0  0  0
  198.0343  183.5864  159.2487 C   0  0  0  0  0  0  0  0  0  0  0  0
  199.7911  180.9953  155.3721 C   0  0  1  0  0  0  0  0  0  0  0  0
  200.1481  179.6058  155.8959 C   0  0  0  0  0  0  0  0  0  0  0  0
  200.8321  179.4667  157.1235 C   0  0  0  0  0  0  0  0  0  0  0  0
  201.1448  178.1869  157.6307 C   0  0  0  0  0  0  0  0  0  0  0  0
  200.7504  177.0331  156.9240 C   0  0  0  0  0  0  0  0  0  0  0  0
  200.0806  177.1661  155.6935 C   0  0  0  0  0  0  0  0  0  0  0  0
  199.8135  178.4447  155.1608 C   0  0  0  0  0  0  0  0  0  0  0  0
  197.0417  178.2590  152.2124 H   0  0  0  0  0  0  0  0  0  0  0  0
  197.3074  178.8471  154.6202 H   0  0  0  0  0  0  0  0  0  0  0  0
  196.6604  183.0043  153.6481 H   0  0  0  0  0  0  0  0  0  0  0  0
  196.2594  182.3906  151.2811 H   0  0  0  0  0  0  0  0  0  0  0  0
  197.0497  180.4295  156.3673 H   0  0  0  0  0  0  0  0  0  0  0  0
  195.3653  182.2626  155.8747 H   0  0  0  0  0  0  0  0  0  0  0  0
  194.4516  183.4158  157.7347 H   0  0  0  0  0  0  0  0  0  0  0  0
  194.7979  184.4558  159.9458 H   0  0  0  0  0  0  0  0  0  0  0  0
  197.0800  184.5546  160.9296 H   0  0  0  0  0  0  0  0  0  0  0  0
  199.0223  183.6408  159.6882 H   0  0  0  0  0  0  0  0  0  0  0  0
  199.5643  180.9333  154.3071 H   0  0  0  0  0  0  0  0  0  0  0  0
  200.6985  181.5967  155.3922 H   0  0  0  0  0  0  0  0  0  0  0  0
  201.1389  180.3406  157.6833 H   0  0  0  0  0  0  0  0  0  0  0  0
  201.6986  178.0898  158.5558 H   0  0  0  0  0  0  0  0  0  0  0  0
  200.9897  176.0518  157.3110 H   0  0  0  0  0  0  0  0  0  0  0  0
  199.7751  176.2818  155.1492 H   0  0  0  0  0  0  0  0  0  0  0  0
  199.3312  178.5186  154.1957 H   0  0  0  0  0  0  0  0  0  0  0  0
  1  2  1  0
  2  3  1  0
  2  7  2  0
  3  4  2  0
  3 26  1  0
  4  5  1  0
  4 27  1  0
  5  6  2  0
  5  8  1  0
  6  7  1  0
  6 28  1  0
  7 29  1  0
  8  9  1  0
  8 14  1  0
  8 30  1  1
  9 10  1  0
  9 19  1  0
 10 11  2  0
 10 12  1  0
 12 13  1  0
 12 18  2  0
 13 14  1  0
 13 15  2  0
 14 31  1  0
 15 16  1  0
 15 32  1  0
 16 17  2  0
 16 33  1  0
 17 18  1  0
 17 34  1  0
 18 35  1  0
 19 20  1  0
 19 36  1  6
 19 37  1  0
 20 21  2  0
 20 25  1  0
 21 22  1  0
 21 38  1  0
 22 23  2  0
 22 39  1  0
 23 24  1  0
 23 40  1  0
 24 25  2  0
 24 41  1  0
 25 42  1  0
M  END
>  <s_epik_Chemistry_Notes>  (2) 
This compound contains an acetal/aminal-like group ( X-CH(R)-Y where X, Y are N, S, or O) that may be acid/base labile, releasing an aldehyde.

>  <s_epik_cmdline>  (2) 
J2VwaWtfcHl0aG9uJywgJy1waCcsICc3LjAwMDAwMCcsICctcGh0JywgJzIuMDAwMDAwJywgJy1tcycsICcxNicsICctdG4nLCAnOCcsICctbWEnLCAnMjAwJywgJy1pbWFlJywgJzxpbmZpbGUubWFlPicsICctb21hZScsICc8b3V0ZmlsZS5tYWU+Jw==

>  <s_epik_input>  (2) 
W2NIXTFbY0hdW2NIXVtjSF1jKGMxMilbTkhdW0NAQEhdKGMoW2NIXVtjSF0zKVtjSF1bY0hdYzNDbClOKEMyPU8pW0NIMl1jNFtjSF1bY0hdW2NIXVtjSF1bY0hdNA==

>  <s_i_glide_gridfile>  (2) 
ATP-Grid

>  <s_lp_Force_Field>  (2) 
OPLS_2005

>  <s_lp_Variant>  (2) 
m_66bab____89518____10970556-1

>  <s_lp_label>  (2) 
1825_sdstereoexpander_1_neutralizer_1_epik_1_stereoizer_1

>  <s_m_source_file>  (2) 
ATP-VSW-LIGPREP-002-in.maegz

>  <s_sd_BIOSOLVEIT.INFINISEE\_QUERY\_NAME>  (2) 
Ref-Lig

>  <s_sd_BIOSOLVEIT.INFINISEE\_QUERY\_SMILES>  (2) 
S(c1nc2c(cc1C[NH2+]Cc3ccc(cc3)C[NH+](C)C)cccc2)Cc4ccccc4

>  <s_sd_BIOSOLVEIT.INFINISEE\_REACTION\_NAME>  (2) 
m_66bab

>  <s_sd_BIOSOLVEIT.INFINISEE\_REAGENT1\_SMILES>  (2) 
[R1*]N(C(=O)c1c(N[R2*])cccc1)Cc2ccccc2

>  <s_sd_BIOSOLVEIT.INFINISEE\_REAGENT2\_SMILES>  (2) 
[R1*]C1([R2*])CC(c2ccc(Cl)cc2)CCC1

>  <s_sd_BIOSOLVEIT.INFINISEE\_SPACE>  (2) 
REALSpace_44bn_2023-08

>  <s_vsw_compound_code>  (2) 
58370

>  <s_vsw_variant>  (2) 
58370-1

>  <r_epik_Charging_Adjusted_Penalty>  (2) 
0

>  <r_epik_Ionization_Penalty>  (2) 
0

>  <r_epik_Ionization_Penalty_Charging>  (2) 
0

>  <r_epik_Ionization_Penalty_Neutral>  (2) 
0

>  <r_epik_State_Penalty>  (2) 
-0

>  <r_i_docking_score>  (2) 
-4.2671466110497596

>  <r_i_glide_ecoul>  (2) 
-2.2772045135497998

>  <r_i_glide_eff_state_penalty>  (2) 
-0

>  <r_i_glide_einternal>  (2) 
2.12790727615356

>  <r_i_glide_emodel>  (2) 
-42.750448116341097

>  <r_i_glide_energy>  (2) 
-34.001861572265597

>  <r_i_glide_erotb>  (2) 
0.46946400384524201

>  <r_i_glide_esite>  (2) 
-0.16586820155439

>  <r_i_glide_evdw>  (2) 
-31.724657058715799

>  <r_i_glide_gscore>  (2) 
-4.2671466110497596

>  <r_i_glide_hbond>  (2) 
-0.16

>  <r_i_glide_ligand_efficiency>  (2) 
-0.17068586444198999

>  <r_i_glide_ligand_efficiency_ln>  (2) 
-1.0114416228837599

>  <r_i_glide_ligand_efficiency_sa>  (2) 
-0.499088494755076

>  <r_i_glide_lipo>  (2) 
-1.4521914742814399

>  <r_i_glide_metal>  (2) 
-0

>  <r_i_glide_rewards>  (2) 
-1.0307374090909101

>  <r_lp_Energy>  (2) 
28.234705999999999

>  <r_lp_tautomer_probability>  (2) 
1

>  <r_qp_ACxDN^.5/SA>  (2) 
0.0068897000000000003

>  <r_qp_CIQPlogS>  (2) 
-5.9550000000000001

>  <r_qp_EA(eV)>  (2) 
0.504

>  <r_qp_FISA>  (2) 
42.853000000000002

>  <r_qp_FOSA>  (2) 
41.268999999999998

>  <r_qp_IP(eV)>  (2) 
8.6370000000000005

>  <r_qp_Jm>  (2) 
0.35705695189570402

>  <r_qp_PISA>  (2) 
428.53300000000002

>  <r_qp_PSA>  (2) 
38.75

>  <r_qp_PercentHumanOralAbsorption>  (2) 
100

>  <r_qp_QPPCaco>  (2) 
3886.2240000000002

>  <r_qp_QPPMDCK>  (2) 
5053.7529999999997

>  <r_qp_QPlogBB>  (2) 
0.224

>  <r_qp_QPlogHERG>  (2) 
-5.8319999999999999

>  <r_qp_QPlogKhsa>  (2) 
0.626

>  <r_qp_QPlogKp>  (2) 
-0.60799999999999998

>  <r_qp_QPlogPC16>  (2) 
12.041

>  <r_qp_QPlogPo/w>  (2) 
4.6680000000000001

>  <r_qp_QPlogPoct>  (2) 
17.085000000000001

>  <r_qp_QPlogPw>  (2) 
9.3100000000000005

>  <r_qp_QPlogS>  (2) 
-5.3819999999999997

>  <r_qp_QPpolrz>  (2) 
38.679000000000002

>  <r_qp_SASA>  (2) 
580.57299999999998

>  <r_qp_SAamideO>  (2) 
0

>  <r_qp_SAfluorine>  (2) 
0

>  <r_qp_WPSA>  (2) 
67.918000000000006

>  <r_qp_accptHB>  (2) 
4

>  <r_qp_dip^2/V>  (2) 
0.027720600000000001

>  <r_qp_dipole>  (2) 
5.3949999999999996

>  <r_qp_donorHB>  (2) 
1

>  <r_qp_glob>  (2) 
0.86058659999999998

>  <r_qp_mol_MW>  (2) 
348.83100000000002

>  <r_qp_volume>  (2) 
1050.098

>  <r_sd_BIOSOLVEIT.INFINISEE\_FTREES\_SIMILARITY>  (2) 
0.90400000000000003

>  <r_sd_BIOSOLVEIT.LOGP>  (2) 
5.1067

>  <r_sd_BIOSOLVEIT.MOLECULAR\_WEIGHT>  (2) 
348.83100000000002

>  <r_sd_BIOSOLVEIT.TPSA>  (2) 
32.340000000000003

>  <i_epik_Tot_Q>  (2) 
0

>  <i_epik_Tot_abs_Q>  (2) 
0

>  <i_f3d_flags>  (2) 
0

>  <i_i_glide_confnum>  (2) 
2

>  <i_i_glide_lignum>  (2) 
643

>  <i_i_glide_posenum>  (2) 
19

>  <i_i_glide_rotatable_bonds>  (2) 
3

>  <i_lp_mmshare_version>  (2) 
65135

>  <i_m_ct_format>  (2) 
2

>  <i_m_source_file_index>  (2) 
1825

>  <i_qp_#NandO>  (2) 
3

>  <i_qp_#acid>  (2) 
0

>  <i_qp_#amide>  (2) 
0

>  <i_qp_#amidine>  (2) 
0

>  <i_qp_#amine>  (2) 
0

>  <i_qp_#in34>  (2) 
0

>  <i_qp_#in56>  (2) 
22

>  <i_qp_#metab>  (2) 
4

>  <i_qp_#nonHatm>  (2) 
25

>  <i_qp_#noncon>  (2) 
1

>  <i_qp_#ringatoms>  (2) 
22

>  <i_qp_#rotor>  (2) 
2

>  <i_qp_#rtvFG>  (2) 
0

>  <i_qp_#stars>  (2) 
0

>  <i_qp_CNS>  (2) 
1

>  <i_qp_HumanOralAbsorption>  (2) 
3

>  <i_qp_RuleOfFive>  (2) 
0

>  <i_qp_RuleOfThree>  (2) 
0

>  <i_sd_BIOSOLVEIT.INFINISEE\_REAGENT1\_NAME>  (2) 
89518

>  <i_sd_BIOSOLVEIT.INFINISEE\_REAGENT2\_NAME>  (2) 
10970556

>  <i_sd_BIOSOLVEIT.INFINISEE\_RESULT\_RANK>  (2) 
79470

>  <i_sd_version>  (2) 
0

>  <b_lp_Chiralities_Consistent>  (2) 
1

>  <b_sd_chiral_flag>  (2) 
0

>  <acquisition_id>  (2) 
ATP-ACQ-0002

>  <canonical_id>  (2) 
ATP-HTVS-40E764CABCB1

>  <compound_code>  (2) 
58370

>  <title>  (2) 
m_66bab____89518____10970556

>  <variant>  (2) 
58370-1

>  <selection_arm>  (2) 
descriptor_diversity

>  <priority>  (2) 
P0

>  <wave>  (2) 
1

>  <source_file>  (2) 
运行/运行/ATP-VSW/ATP-VSW-DOCK_HTVS_1-002_lib.maegz

>  <canonical_smiles>  (2) 
O=C1c2ccccc2N[C@@H](c2ccc(Cl)cc2)N1Cc1ccccc1

$$$$
ATP-ACQ-0003
     RDKit          3D

 65 69  0  0  0  0  0  0  0  0999 V2000
  196.7640  180.9905  153.3455 N   0  0  0  0  0  0  0  0  0  0  0  0
  197.0104  182.0939  152.5404 C   0  0  0  0  0  0  0  0  0  0  0  0
  197.2620  183.2562  153.3230 C   0  0  0  0  0  0  0  0  0  0  0  0
  197.1334  182.8185  154.6385 N   0  0  0  0  0  0  0  0  0  0  0  0
  197.3014  183.5396  155.8543 C   0  0  0  0  0  0  0  0  0  0  0  0
  196.3957  183.4080  156.9321 C   0  0  0  0  0  0  0  0  0  0  0  0
  196.6168  184.0824  158.1504 C   0  0  0  0  0  0  0  0  0  0  0  0
  197.7145  184.9552  158.2856 C   0  0  0  0  0  0  0  0  0  0  0  0
  198.5898  185.1458  157.1942 C   0  0  0  0  0  0  0  0  0  0  0  0
  198.3945  184.4304  155.9907 C   0  0  0  0  0  0  0  0  0  0  0  0
  196.8235  181.4891  154.5801 C   0  0  0  0  0  0  0  0  0  0  0  0
  196.6360  180.6130  155.7818 C   0  0  1  0  0  0  0  0  0  0  0  0
  197.9543  180.3425  156.5270 C   0  0  1  0  0  0  0  0  0  0  0  0
  198.5257  179.0446  156.1256 N   0  0  1  0  0  0  0  0  0  0  0  0
  199.9734  178.8987  156.3759 C   0  0  1  0  0  0  0  0  0  0  0  0
  200.4905  177.5817  155.8218 C   0  0  0  0  0  0  0  0  0  0  0  0
  200.3065  177.2638  154.4634 C   0  0  0  0  0  0  0  0  0  0  0  0
  200.8148  176.0523  153.9459 C   0  0  0  0  0  0  0  0  0  0  0  0
  201.5195  175.1526  154.7752 C   0  0  0  0  0  0  0  0  0  0  0  0
  202.0328  173.9505  154.2659 N   0  0  0  0  0  0  0  0  0  0  0  0
  201.3079  173.1751  153.2612 C   0  0  1  0  0  0  0  0  0  0  0  0
  202.2262  172.8605  152.0641 C   0  0  1  0  0  0  0  0  0  0  0  0
  203.5008  172.2528  152.5112 N   0  0  2  0  0  0  0  0  0  0  0  0
  204.2090  173.1066  153.4846 C   0  0  1  0  0  0  0  0  0  0  0  0
  203.3202  173.4171  154.7066 C   0  0  1  0  0  0  0  0  0  0  0  0
  204.3635  171.9101  151.3579 C   0  0  2  0  0  0  0  0  0  0  0  0
  201.6992  175.4846  156.1349 C   0  0  0  0  0  0  0  0  0  0  0  0
  201.1763  176.6857  156.6611 C   0  0  0  0  0  0  0  0  0  0  0  0
  197.5648  184.4964  152.7178 C   0  0  0  0  0  0  0  0  0  0  0  0
  197.6224  184.5834  151.3121 C   0  0  0  0  0  0  0  0  0  0  0  0
  197.3696  183.4436  150.5208 C   0  0  0  0  0  0  0  0  0  0  0  0
  197.0651  182.2064  151.1307 C   0  0  0  0  0  0  0  0  0  0  0  0
  198.0312  178.3501  156.6957 H   0  0  0  0  0  0  0  0  0  0  0  0
  195.5260  182.7855  156.8397 H   0  0  0  0  0  0  0  0  0  0  0  0
  195.9367  183.9259  158.9737 H   0  0  0  0  0  0  0  0  0  0  0  0
  197.8664  185.4971  159.2110 H   0  0  0  0  0  0  0  0  0  0  0  0
  199.4140  185.8500  157.2747 H   0  0  0  0  0  0  0  0  0  0  0  0
  199.0838  184.5820  155.1714 H   0  0  0  0  0  0  0  0  0  0  0  0
  195.8951  181.0477  156.4519 H   0  0  0  0  0  0  0  0  0  0  0  0
  196.2243  179.6517  155.4436 H   0  0  0  0  0  0  0  0  0  0  0  0
  198.6740  181.1445  156.3691 H   0  0  0  0  0  0  0  0  0  0  0  0
  197.7883  180.3046  157.6022 H   0  0  0  0  0  0  0  0  0  0  0  0
  200.5196  179.7165  155.8966 H   0  0  0  0  0  0  0  0  0  0  0  0
  200.1563  178.9671  157.4502 H   0  0  0  0  0  0  0  0  0  0  0  0
  199.7890  177.9442  153.7999 H   0  0  0  0  0  0  0  0  0  0  0  0
  200.6668  175.8398  152.8993 H   0  0  0  0  0  0  0  0  0  0  0  0
  200.9879  172.2405  153.7184 H   0  0  0  0  0  0  0  0  0  0  0  0
  200.3943  173.6750  152.9262 H   0  0  0  0  0  0  0  0  0  0  0  0
  201.7034  172.2161  151.3504 H   0  0  0  0  0  0  0  0  0  0  0  0
  202.4409  173.7924  151.5381 H   0  0  0  0  0  0  0  0  0  0  0  0
  205.1428  172.6362  153.8088 H   0  0  0  0  0  0  0  0  0  0  0  0
  204.4839  174.0459  153.0043 H   0  0  0  0  0  0  0  0  0  0  0  0
  203.8368  174.1208  155.3649 H   0  0  0  0  0  0  0  0  0  0  0  0
  203.1540  172.5047  155.2803 H   0  0  0  0  0  0  0  0  0  0  0  0
  204.6908  172.8151  150.8472 H   0  0  0  0  0  0  0  0  0  0  0  0
  203.8334  171.2925  150.6297 H   0  0  0  0  0  0  0  0  0  0  0  0
  205.2520  171.3637  151.6795 H   0  0  0  0  0  0  0  0  0  0  0  0
  202.2305  174.8222  156.7999 H   0  0  0  0  0  0  0  0  0  0  0  0
  201.3248  176.9188  157.7051 H   0  0  0  0  0  0  0  0  0  0  0  0
  197.7500  185.3719  153.3222 H   0  0  0  0  0  0  0  0  0  0  0  0
  197.8588  185.5261  150.8394 H   0  0  0  0  0  0  0  0  0  0  0  0
  197.4168  183.5147  149.4436 H   0  0  0  0  0  0  0  0  0  0  0  0
  196.8859  181.3300  150.5240 H   0  0  0  0  0  0  0  0  0  0  0  0
  198.3481  178.9052  155.1449 H   0  0  0  0  0  0  0  0  0  0  0  0
  203.2983  171.3774  153.0203 H   0  0  0  0  0  0  0  0  0  0  0  0
  1  2  1  0
  1 11  2  0
  2  3  1  0
  2 32  2  0
  3  4  1  0
  3 29  2  0
  4  5  1  0
  4 11  1  0
  5  6  2  0
  5 10  1  0
  6  7  1  0
  6 34  1  0
  7  8  2  0
  7 35  1  0
  8  9  1  0
  8 36  1  0
  9 10  2  0
  9 37  1  0
 10 38  1  0
 11 12  1  0
 12 13  1  0
 12 39  1  1
 12 40  1  0
 13 14  1  0
 13 41  1  1
 13 42  1  0
 14 15  1  0
 14 33  1  1
 14 64  1  0
 15 16  1  0
 15 43  1  6
 15 44  1  0
 16 17  1  0
 16 28  2  0
 17 18  2  0
 17 45  1  0
 18 19  1  0
 18 46  1  0
 19 20  1  0
 19 27  2  0
 20 21  1  0
 20 25  1  0
 21 22  1  0
 21 47  1  1
 21 48  1  0
 22 23  1  0
 22 49  1  6
 22 50  1  0
 23 24  1  0
 23 26  1  0
 23 65  1  1
 24 25  1  0
 24 51  1  1
 24 52  1  0
 25 53  1  1
 25 54  1  0
 26 55  1  6
 26 56  1  0
 26 57  1  0
 27 28  1  0
 27 58  1  0
 28 59  1  0
 29 30  1  0
 29 60  1  0
 30 31  2  0
 30 61  1  0
 31 32  1  0
 31 62  1  0
 32 63  1  0
M  CHG  2  14   1  23   1
M  END
>  <s_epik_cmdline>  (3) 
J2VwaWtfcHl0aG9uJywgJy1waCcsICc3LjAwMDAwMCcsICctcGh0JywgJzIuMDAwMDAwJywgJy1tcycsICcxNicsICctdG4nLCAnOCcsICctbWEnLCAnMjAwJywgJy1pbWFlJywgJzxpbmZpbGUubWFlPicsICctb21hZScsICc8b3V0ZmlsZS5tYWU+Jw==

>  <s_epik_input>  (3) 
W2NIXTFbY0hdW2NIXVtjSF1bY0hdYzEtbihjKGMyMylbY0hdW2NIXVtjSF1bY0hdMyljKG4yKVtDSDJdW0NIMl1bTkhdW0NIMl1jNFtjSF1bY0hdYyhbY0hdW2NIXTQpTjVbQ0gyXVtDSDJdTihbQ0gzXSlbQ0gyXVtDSDJdNQ==

>  <s_i_glide_gridfile>  (3) 
ATP-Grid

>  <s_lp_Force_Field>  (3) 
OPLS_2005

>  <s_lp_Variant>  (3) 
m_270004bbb____21660890____8300602-1

>  <s_lp_label>  (3) 
1551_sdstereoexpander_1_neutralizer_1_epik_1_stereoizer_1

>  <s_m_source_file>  (3) 
ATP-VSW-LIGPREP-002-in.maegz

>  <s_sd_BIOSOLVEIT.INFINISEE\_QUERY\_NAME>  (3) 
Ref-Lig

>  <s_sd_BIOSOLVEIT.INFINISEE\_QUERY\_SMILES>  (3) 
S(c1nc2c(cc1C[NH2+]Cc3ccc(cc3)C[NH+](C)C)cccc2)Cc4ccccc4

>  <s_sd_BIOSOLVEIT.INFINISEE\_REACTION\_NAME>  (3) 
m_270004bbb

>  <s_sd_BIOSOLVEIT.INFINISEE\_REAGENT1\_SMILES>  (3) 
[R1*]NCCC1=Nc2c(N1c3ccccc3)cccc2

>  <s_sd_BIOSOLVEIT.INFINISEE\_REAGENT2\_SMILES>  (3) 
[R1*]Cc1ccc(N2CCN(CC2)C)cc1

>  <s_sd_BIOSOLVEIT.INFINISEE\_SPACE>  (3) 
REALSpace_44bn_2023-08

>  <s_vsw_compound_code>  (3) 
49602

>  <s_vsw_variant>  (3) 
49602-1

>  <r_epik_Charging_Adjusted_Penalty>  (3) 
0.31884055362863301

>  <r_epik_Ionization_Penalty>  (3) 
0.1842

>  <r_epik_Ionization_Penalty_Charging>  (3) 
0.17100000000000001

>  <r_epik_Ionization_Penalty_Neutral>  (3) 
0.0132

>  <r_epik_State_Penalty>  (3) 
0.14779999999999999

>  <r_i_docking_score>  (3) 
-5.6375250103448797

>  <r_i_glide_ecoul>  (3) 
-16.872533798217798

>  <r_i_glide_eff_state_penalty>  (3) 
0.14779999999999999

>  <r_i_glide_einternal>  (3) 
9.7809638977050799

>  <r_i_glide_emodel>  (3) 
-72.826645391868496

>  <r_i_glide_energy>  (3) 
-49.2134685516357

>  <r_i_glide_erotb>  (3) 
0.760239253932252

>  <r_i_glide_esite>  (3) 
-0.264486795694507

>  <r_i_glide_evdw>  (3) 
-32.340934753417997

>  <r_i_glide_gscore>  (3) 
-5.7853250103448799

>  <r_i_glide_hbond>  (3) 
-0.40000000000000002

>  <r_i_glide_ligand_efficiency>  (3) 
-0.17617265657327799

>  <r_i_glide_ligand_efficiency_ln>  (3) 
-1.26239552294405

>  <r_i_glide_ligand_efficiency_sa>  (3) 
-0.559313320098762

>  <r_i_glide_lipo>  (3) 
-0.96314317945710004

>  <r_i_glide_metal>  (3) 
-0

>  <r_i_glide_rewards>  (3) 
-0.77000748172195999

>  <r_lp_Energy>  (3) 
41.938363000000003

>  <r_qp_ACxDN^.5/SA>  (3) 
0.0083823999999999999

>  <r_qp_CIQPlogS>  (3) 
-4.7309999999999999

>  <r_qp_EA(eV)>  (3) 
0.35899999999999999

>  <r_qp_FISA>  (3) 
44.054000000000002

>  <r_qp_FOSA>  (3) 
305.47000000000003

>  <r_qp_IP(eV)>  (3) 
8.4179999999999993

>  <r_qp_Jm>  (3) 
0.00131701890501222

>  <r_qp_PISA>  (3) 
366.26100000000002

>  <r_qp_PSA>  (3) 
39.091999999999999

>  <r_qp_PercentHumanOralAbsorption>  (3) 
95.700000000000003

>  <r_qp_QPPCaco>  (3) 
235.46899999999999

>  <r_qp_QPPMDCK>  (3) 
126.836

>  <r_qp_QPlogBB>  (3) 
0.63900000000000001

>  <r_qp_QPlogHERG>  (3) 
-7.3869999999999996

>  <r_qp_QPlogKhsa>  (3) 
0.97399999999999998

>  <r_qp_QPlogKp>  (3) 
-4.6859999999999999

>  <r_qp_QPlogPC16>  (3) 
14.07

>  <r_qp_QPlogPo/w>  (3) 
4.492

>  <r_qp_QPlogPoct>  (3) 
21.245000000000001

>  <r_qp_QPlogPw>  (3) 
10.504

>  <r_qp_QPlogS>  (3) 
-3.823

>  <r_qp_QPpolrz>  (3) 
49.200000000000003

>  <r_qp_SASA>  (3) 
715.78599999999994

>  <r_qp_SAamideO>  (3) 
0

>  <r_qp_SAfluorine>  (3) 
0

>  <r_qp_WPSA>  (3) 
0

>  <r_qp_accptHB>  (3) 
6

>  <r_qp_dip^2/V>  (3) 
0.020270799999999999

>  <r_qp_dipole>  (3) 
5.2809999999999997

>  <r_qp_donorHB>  (3) 
1

>  <r_qp_glob>  (3) 
0.8358392

>  <r_qp_mol_MW>  (3) 
425.57499999999999

>  <r_qp_volume>  (3) 
1375.9760000000001

>  <r_sd_BIOSOLVEIT.INFINISEE\_FTREES\_SIMILARITY>  (3) 
0.90600000000000003

>  <r_sd_BIOSOLVEIT.LOGP>  (3) 
1.6662999999999999

>  <r_sd_BIOSOLVEIT.MOLECULAR\_WEIGHT>  (3) 
427.59300000000002

>  <r_sd_BIOSOLVEIT.TPSA>  (3) 
42.109999999999999

>  <i_epik_Tot_Q>  (3) 
2

>  <i_epik_Tot_abs_Q>  (3) 
2

>  <i_f3d_flags>  (3) 
0

>  <i_i_glide_confnum>  (3) 
7

>  <i_i_glide_lignum>  (3) 
534

>  <i_i_glide_posenum>  (3) 
16

>  <i_i_glide_rotatable_bonds>  (3) 
7

>  <i_lp_mmshare_version>  (3) 
65135

>  <i_m_ct_format>  (3) 
2

>  <i_m_source_file_index>  (3) 
1551

>  <i_qp_#NandO>  (3) 
5

>  <i_qp_#acid>  (3) 
0

>  <i_qp_#amide>  (3) 
0

>  <i_qp_#amidine>  (3) 
0

>  <i_qp_#amine>  (3) 
2

>  <i_qp_#in34>  (3) 
0

>  <i_qp_#in56>  (3) 
27

>  <i_qp_#metab>  (3) 
4

>  <i_qp_#nonHatm>  (3) 
32

>  <i_qp_#noncon>  (3) 
4

>  <i_qp_#ringatoms>  (3) 
27

>  <i_qp_#rotor>  (3) 
5

>  <i_qp_#rtvFG>  (3) 
0

>  <i_qp_#stars>  (3) 
0

>  <i_qp_CNS>  (3) 
2

>  <i_qp_HumanOralAbsorption>  (3) 
3

>  <i_qp_RuleOfFive>  (3) 
0

>  <i_qp_RuleOfThree>  (3) 
0

>  <i_sd_BIOSOLVEIT.INFINISEE\_REAGENT1\_NAME>  (3) 
21660890

>  <i_sd_BIOSOLVEIT.INFINISEE\_REAGENT2\_NAME>  (3) 
8300602

>  <i_sd_BIOSOLVEIT.INFINISEE\_RESULT\_RANK>  (3) 
62417

>  <i_sd_version>  (3) 
0

>  <b_lp_Chiralities_Consistent>  (3) 
1

>  <b_sd_chiral_flag>  (3) 
0

>  <acquisition_id>  (3) 
ATP-ACQ-0003

>  <canonical_id>  (3) 
ATP-HTVS-442C36D59863

>  <compound_code>  (3) 
49602

>  <title>  (3) 
m_270004bbb____21660890____8300602

>  <variant>  (3) 
49602-1

>  <selection_arm>  (3) 
score_calibration

>  <priority>  (3) 
P0

>  <wave>  (3) 
1

>  <source_file>  (3) 
运行/运行/ATP-VSW/ATP-VSW-DOCK_HTVS_1-002_lib.maegz

>  <canonical_smiles>  (3) 
C[NH+]1CCN(c2ccc(C[NH2+]CCc3nc4ccccc4n3-c3ccccc3)cc2)CC1

$$$$
ATP-ACQ-0004
     RDKit          3D

 56 59  0  0  0  0  0  0  0  0999 V2000
  197.5163  184.2612  152.2366 F   0  0  0  0  0  0  0  0  0  0  0  0
  197.1323  182.9620  152.2910 C   0  0  0  0  0  0  0  0  0  0  0  0
  197.0932  182.3465  153.5280 C   0  0  0  0  0  0  0  0  0  0  0  0
  196.7696  180.9771  153.6503 C   0  0  0  0  0  0  0  0  0  0  0  0
  196.3673  180.2526  152.4800 C   0  0  0  0  0  0  0  0  0  0  0  0
  196.3457  180.9146  151.2259 C   0  0  0  0  0  0  0  0  0  0  0  0
  196.7447  182.2699  151.1190 C   0  0  0  0  0  0  0  0  0  0  0  0
  196.7892  180.2449  155.0028 C   0  0  2  0  0  0  0  0  0  0  0  0
  196.5059  181.1537  156.1458 N   0  0  1  0  0  0  0  0  0  0  0  0
  197.6575  182.0033  156.6197 C   0  0  1  0  0  0  0  0  0  0  0  0
  197.0196  183.0428  157.4542 C   0  0  0  0  0  0  0  0  0  0  0  0
  196.5373  183.9325  158.1423 C   0  0  0  0  0  0  0  0  0  0  0  0
  195.9867  184.9194  159.0438 C   0  0  0  0  0  0  0  0  0  0  0  0
  196.6014  186.1595  159.3249 C   0  0  0  0  0  0  0  0  0  0  0  0
  195.9671  187.0320  160.2404 C   0  0  0  0  0  0  0  0  0  0  0  0
  194.7499  186.6210  160.8386 C   0  0  0  0  0  0  0  0  0  0  0  0
  194.1560  185.4541  160.4993 N   0  0  0  0  0  0  0  0  0  0  0  0
  194.7706  184.6073  159.6634 C   0  0  0  0  0  0  0  0  0  0  0  0
  194.1248  187.5258  161.7355 N   0  0  0  0  0  0  0  0  0  0  0  0
  193.1047  187.3380  162.5932 C   0  0  0  0  0  0  0  0  0  0  0  0
  192.6712  186.2343  162.9326 O   0  0  0  0  0  0  0  0  0  0  0  0
  192.5957  188.5846  163.2686 C   0  0  0  0  0  0  0  0  0  0  0  0
  191.9619  188.4973  164.5320 C   0  0  0  0  0  0  0  0  0  0  0  0
  191.4535  189.6536  165.1594 C   0  0  0  0  0  0  0  0  0  0  0  0
  190.8444  189.5689  166.3779 O   0  0  0  0  0  0  0  0  0  0  0  0
  191.5867  190.9067  164.5310 C   0  0  0  0  0  0  0  0  0  0  0  0
  192.2246  191.0067  163.2819 C   0  0  0  0  0  0  0  0  0  0  0  0
  192.7374  189.8564  162.6582 C   0  0  0  0  0  0  0  0  0  0  0  0
  196.5581  188.2864  160.5163 C   0  0  0  0  0  0  0  0  0  0  0  0
  197.7732  188.6506  159.9146 C   0  0  0  0  0  0  0  0  0  0  0  0
  198.4126  187.7731  159.0249 C   0  0  0  0  0  0  0  0  0  0  0  0
  197.8297  186.5311  158.7290 C   0  0  0  0  0  0  0  0  0  0  0  0
  198.0902  179.4514  155.2427 C   0  0  2  0  0  0  0  0  0  0  0  0
  195.6765  181.7110  155.8938 H   0  0  0  0  0  0  0  0  0  0  0  0
  197.2854  183.0497  154.2859 H   0  0  0  0  0  0  0  0  0  0  0  0
  196.0335  179.1938  152.5385 H   0  0  0  0  0  0  0  0  0  0  0  0
  196.0279  180.4078  150.3413 H   0  0  0  0  0  0  0  0  0  0  0  0
  196.7461  182.8295  150.1638 H   0  0  0  0  0  0  0  0  0  0  0  0
  195.9808  179.5043  155.0278 H   0  0  0  0  0  0  0  0  0  0  0  0
  198.3786  181.4049  157.2308 H   0  0  0  0  0  0  0  0  0  0  0  0
  198.2904  182.4956  155.9146 H   0  0  0  0  0  0  0  0  0  0  0  0
  194.2616  183.6676  159.4858 H   0  0  0  0  0  0  0  0  0  0  0  0
  194.4569  188.4777  161.6664 H   0  0  0  0  0  0  0  0  0  0  0  0
  191.8484  187.5356  165.0200 H   0  0  0  0  0  0  0  0  0  0  0  0
  190.8671  188.6928  166.7318 H   0  0  0  0  0  0  0  0  0  0  0  0
  191.2015  191.7984  165.0010 H   0  0  0  0  0  0  0  0  0  0  0  0
  192.3235  191.9606  162.7891 H   0  0  0  0  0  0  0  0  0  0  0  0
  193.1934  189.9537  161.6862 H   0  0  0  0  0  0  0  0  0  0  0  0
  196.1194  188.9879  161.2065 H   0  0  0  0  0  0  0  0  0  0  0  0
  198.2292  189.5964  160.1640 H   0  0  0  0  0  0  0  0  0  0  0  0
  199.3528  188.0555  158.5772 H   0  0  0  0  0  0  0  0  0  0  0  0
  198.3455  185.8766  158.0421 H   0  0  0  0  0  0  0  0  0  0  0  0
  198.2766  178.7313  154.4459 H   0  0  0  0  0  0  0  0  0  0  0  0
  198.0500  178.8917  156.1794 H   0  0  0  0  0  0  0  0  0  0  0  0
  198.9583  180.1119  155.2872 H   0  0  0  0  0  0  0  0  0  0  0  0
  196.1979  180.5345  156.9211 H   0  0  0  0  0  0  0  0  0  0  0  0
  1  2  1  0
  2  3  2  0
  2  7  1  0
  3  4  1  0
  3 35  1  0
  4  5  2  0
  4  8  1  0
  5  6  1  0
  5 36  1  0
  6  7  2  0
  6 37  1  0
  7 38  1  0
  8  9  1  0
  8 33  1  0
  8 39  1  6
  9 10  1  0
  9 34  1  6
  9 56  1  0
 10 11  1  0
 10 40  1  1
 10 41  1  0
 11 12  3  0
 12 13  1  0
 13 14  2  0
 13 18  1  0
 14 15  1  0
 14 32  1  0
 15 16  2  0
 15 29  1  0
 16 17  1  0
 16 19  1  0
 17 18  2  0
 18 42  1  0
 19 20  1  0
 19 43  1  0
 20 21  2  0
 20 22  1  0
 22 23  1  0
 22 28  2  0
 23 24  2  0
 23 44  1  0
 24 25  1  0
 24 26  1  0
 25 45  1  0
 26 27  2  0
 26 46  1  0
 27 28  1  0
 27 47  1  0
 28 48  1  0
 29 30  2  0
 29 49  1  0
 30 31  1  0
 30 50  1  0
 31 32  2  0
 31 51  1  0
 32 52  1  0
 33 53  1  6
 33 54  1  0
 33 55  1  0
M  CHG  1   9   1
M  END
>  <s_epik_cmdline>  (4) 
J2VwaWtfcHl0aG9uJywgJy1waCcsICc3LjAwMDAwMCcsICctcGh0JywgJzIuMDAwMDAwJywgJy1tcycsICcxNicsICctdG4nLCAnOCcsICctbWEnLCAnMjAwJywgJy1pbWFlJywgJzxpbmZpbGUubWFlPicsICctb21hZScsICc8b3V0ZmlsZS5tYWU+Jw==

>  <s_epik_input>  (4) 
RmMxW2NIXWMoW2NIXVtjSF1bY0hdMSlbQ0BASF0oW0NIM10pW05IXVtDSDJdQyNDYzJbY0hdbmMoYyhjMjMpW2NIXVtjSF1bY0hdW2NIXTMpW05IXUMoPU8pYzRbY0hdYyhbT0hdKVtjSF1bY0hdW2NIXTQ=

>  <s_i_glide_gridfile>  (4) 
ATP-Grid

>  <s_lp_Force_Field>  (4) 
OPLS_2005

>  <s_lp_Variant>  (4) 
rxn503b____EMOL519605____EMOL7515103____EMOL317509042-3

>  <s_lp_label>  (4) 
2618_sdstereoexpander_1_neutralizer_1_epik_2_stereoizer_1

>  <s_m_source_file>  (4) 
ATP-VSW-LIGPREP-003-in.maegz

>  <s_sd_BIOSOLVEIT.INFINISEE\_QUERY\_NAME>  (4) 
Ref-Lig

>  <s_sd_BIOSOLVEIT.INFINISEE\_QUERY\_SMILES>  (4) 
S(c1nc2c(cc1C[NH2+]Cc3ccc(cc3)C[NH+](C)C)cccc2)Cc4ccccc4

>  <s_sd_BIOSOLVEIT.INFINISEE\_REACTION\_NAME>  (4) 
rxn503b

>  <s_sd_BIOSOLVEIT.INFINISEE\_REAGENT1\_NAME>  (4) 
EMOL519605

>  <s_sd_BIOSOLVEIT.INFINISEE\_REAGENT1\_SMILES>  (4) 
O=C(O)c1cc(O)ccc1

>  <s_sd_BIOSOLVEIT.INFINISEE\_REAGENT2\_NAME>  (4) 
EMOL7515103

>  <s_sd_BIOSOLVEIT.INFINISEE\_REAGENT2\_SMILES>  (4) 
Brc1c2c(c(nc1)N)cccc2

>  <s_sd_BIOSOLVEIT.INFINISEE\_REAGENT3\_NAME>  (4) 
EMOL317509042

>  <s_sd_BIOSOLVEIT.INFINISEE\_REAGENT3\_SMILES>  (4) 
Fc1cc(ccc1)C(NCC#C)C

>  <s_sd_BIOSOLVEIT.INFINISEE\_SPACE>  (4) 
eXplore_7tr_2022-12

>  <s_vsw_compound_code>  (4) 
83747

>  <s_vsw_variant>  (4) 
83747-3

>  <r_epik_Charging_Adjusted_Penalty>  (4) 
1.26014688583507

>  <r_epik_Ionization_Penalty>  (4) 
0.63260000000000005

>  <r_epik_Ionization_Penalty_Charging>  (4) 
0.62760000000000005

>  <r_epik_Ionization_Penalty_Neutral>  (4) 
0.0050000000000000001

>  <r_epik_State_Penalty>  (4) 
0.63260000000000005

>  <r_i_docking_score>  (4) 
-6.8080311750360698

>  <r_i_glide_ecoul>  (4) 
-12.7041931152344

>  <r_i_glide_eff_state_penalty>  (4) 
0.63260000000000005

>  <r_i_glide_einternal>  (4) 
6.27807664871216

>  <r_i_glide_emodel>  (4) 
-92.053093936602494

>  <r_i_glide_energy>  (4) 
-59.172935485839801

>  <r_i_glide_erotb>  (4) 
0.72034826401853402

>  <r_i_glide_esite>  (4) 
-0.090740604689311499

>  <r_i_glide_evdw>  (4) 
-46.468742370605497

>  <r_i_glide_gscore>  (4) 
-7.4406311750360699

>  <r_i_glide_hbond>  (4) 
-0.54026008402495995

>  <r_i_glide_ligand_efficiency>  (4) 
-0.20630397500109299

>  <r_i_glide_ligand_efficiency_ln>  (4) 
-1.5140708832291401

>  <r_i_glide_ligand_efficiency_sa>  (4) 
-0.66172708145936299

>  <r_i_glide_lipo>  (4) 
-2.4326195912099302

>  <r_i_glide_metal>  (4) 
-0

>  <r_i_glide_rewards>  (4) 
-0.86829307331497596

>  <r_lp_Energy>  (4) 
24.252707999999998

>  <r_lp_tautomer_probability>  (4) 
0.999999999997365

>  <r_qp_ACxDN^.5/SA>  (4) 
0.0121023

>  <r_qp_CIQPlogS>  (4) 
-5.9480000000000004

>  <r_qp_EA(eV)>  (4) 
1.1990000000000001

>  <r_qp_FISA>  (4) 
128.16399999999999

>  <r_qp_FOSA>  (4) 
128.63499999999999

>  <r_qp_IP(eV)>  (4) 
8.3940000000000001

>  <r_qp_Jm>  (4) 
6.4133655119297004e-05

>  <r_qp_PISA>  (4) 
519.16499999999996

>  <r_qp_PSA>  (4) 
80.298000000000002

>  <r_qp_PercentHumanOralAbsorption>  (4) 
94.281999999999996

>  <r_qp_QPPCaco>  (4) 
150.459

>  <r_qp_QPPMDCK>  (4) 
127.748

>  <r_qp_QPlogBB>  (4) 
-0.93799999999999994

>  <r_qp_QPlogHERG>  (4) 
-8.8369999999999997

>  <r_qp_QPlogKhsa>  (4) 
0.86599999999999999

>  <r_qp_QPlogKp>  (4) 
-3.347

>  <r_qp_QPlogPC16>  (4) 
16.818000000000001

>  <r_qp_QPlogPo/w>  (4) 
4.8440000000000003

>  <r_qp_QPlogPoct>  (4) 
25.765000000000001

>  <r_qp_QPlogPw>  (4) 
14.412000000000001

>  <r_qp_QPlogS>  (4) 
-6.4889999999999999

>  <r_qp_QPpolrz>  (4) 
50.957000000000001

>  <r_qp_SASA>  (4) 
822.923

>  <r_qp_SAamideO>  (4) 
0

>  <r_qp_SAfluorine>  (4) 
46.957999999999998

>  <r_qp_WPSA>  (4) 
46.957999999999998

>  <r_qp_accptHB>  (4) 
5.75

>  <r_qp_dip^2/V>  (4) 
0.074619900000000003

>  <r_qp_dipole>  (4) 
10.335000000000001

>  <r_qp_donorHB>  (4) 
3

>  <r_qp_glob>  (4) 
0.74645799999999995

>  <r_qp_mol_MW>  (4) 
439.488

>  <r_qp_volume>  (4) 
1431.5260000000001

>  <r_sd_BIOSOLVEIT.INFINISEE\_FTREES\_SIMILARITY>  (4) 
0.91100000000000003

>  <r_sd_BIOSOLVEIT.LOGP>  (4) 
4.0079000000000002

>  <r_sd_BIOSOLVEIT.MOLECULAR\_WEIGHT>  (4) 
440.49599999999998

>  <r_sd_BIOSOLVEIT.TPSA>  (4) 
78.829999999999998

>  <i_epik_Tot_Q>  (4) 
1

>  <i_epik_Tot_abs_Q>  (4) 
1

>  <i_f3d_flags>  (4) 
0

>  <i_i_glide_confnum>  (4) 
2

>  <i_i_glide_lignum>  (4) 
1192

>  <i_i_glide_posenum>  (4) 
10

>  <i_i_glide_rotatable_bonds>  (4) 
9

>  <i_lp_mmshare_version>  (4) 
65135

>  <i_m_ct_format>  (4) 
2

>  <i_m_source_file_index>  (4) 
2618

>  <i_qp_#NandO>  (4) 
5

>  <i_qp_#acid>  (4) 
0

>  <i_qp_#amide>  (4) 
0

>  <i_qp_#amidine>  (4) 
0

>  <i_qp_#amine>  (4) 
1

>  <i_qp_#in34>  (4) 
0

>  <i_qp_#in56>  (4) 
22

>  <i_qp_#metab>  (4) 
6

>  <i_qp_#nonHatm>  (4) 
33

>  <i_qp_#noncon>  (4) 
0

>  <i_qp_#ringatoms>  (4) 
22

>  <i_qp_#rotor>  (4) 
8

>  <i_qp_#rtvFG>  (4) 
0

>  <i_qp_#stars>  (4) 
2

>  <i_qp_CNS>  (4) 
-1

>  <i_qp_HumanOralAbsorption>  (4) 
1

>  <i_qp_RuleOfFive>  (4) 
0

>  <i_qp_RuleOfThree>  (4) 
1

>  <i_sd_BIOSOLVEIT.INFINISEE\_RESULT\_RANK>  (4) 
43229

>  <i_sd_version>  (4) 
0

>  <b_lp_Chiralities_Consistent>  (4) 
1

>  <b_sd_chiral_flag>  (4) 
0

>  <acquisition_id>  (4) 
ATP-ACQ-0004

>  <canonical_id>  (4) 
ATP-HTVS-780990BE0E68

>  <compound_code>  (4) 
83747

>  <title>  (4) 
rxn503b____EMOL519605____EMOL7515103____EMOL317509042

>  <variant>  (4) 
83747-3

>  <selection_arm>  (4) 
exploitation

>  <priority>  (4) 
P0

>  <wave>  (4) 
1

>  <source_file>  (4) 
运行/运行/ATP-VSW/ATP-VSW-DOCK_HTVS_1-003_lib/ATP-VSW-DOCK_HTVS_1-003_lib.mae

>  <canonical_smiles>  (4) 
C[C@@H]([NH2+]CC#Cc1cnc(NC(=O)c2cccc(O)c2)c2ccccc12)c1cccc(F)c1

$$$$
ATP-ACQ-0005
     RDKit          3D

 69 72  0  0  0  0  0  0  0  0999 V2000
  202.6490  182.2392  153.4851 O   0  0  0  0  0  0  0  0  0  0  0  0
  203.3169  181.2310  154.2238 C   0  0  1  0  0  0  0  0  0  0  0  0
  202.3784  180.5514  155.1993 C   0  0  0  0  0  0  0  0  0  0  0  0
  201.1264  180.0819  154.7582 C   0  0  0  0  0  0  0  0  0  0  0  0
  200.2350  179.4736  155.6694 C   0  0  0  0  0  0  0  0  0  0  0  0
  200.6184  179.3014  157.0160 C   0  0  0  0  0  0  0  0  0  0  0  0
  201.8732  179.7596  157.4554 C   0  0  0  0  0  0  0  0  0  0  0  0
  202.7504  180.3890  156.5505 C   0  0  0  0  0  0  0  0  0  0  0  0
  198.8612  179.0238  155.2088 C   0  0  1  0  0  0  0  0  0  0  0  0
  197.8133  179.9819  155.5042 N   0  0  0  0  0  0  0  0  0  0  0  0
  197.7849  181.1899  154.7879 C   0  0  0  0  0  0  0  0  0  0  0  0
  198.4469  182.2473  155.2886 N   0  0  0  0  0  0  0  0  0  0  0  0
  198.3747  183.4390  154.6829 C   0  0  0  0  0  0  0  0  0  0  0  0
  197.6991  183.6370  153.5505 N   0  0  0  0  0  0  0  0  0  0  0  0
  197.1310  182.5871  152.9434 C   0  0  0  0  0  0  0  0  0  0  0  0
  197.1195  181.2978  153.5542 C   0  0  0  0  0  0  0  0  0  0  0  0
  196.4998  180.2104  152.9103 C   0  0  0  0  0  0  0  0  0  0  0  0
  195.9635  180.4060  151.6213 C   0  0  0  0  0  0  0  0  0  0  0  0
  195.9847  181.6823  151.0294 C   0  0  0  0  0  0  0  0  0  0  0  0
  196.5735  182.7812  151.6776 C   0  0  0  0  0  0  0  0  0  0  0  0
  198.9930  184.5272  155.2285 N   0  0  0  0  0  0  0  0  0  0  0  0
  199.6772  184.4915  156.5068 C   0  0  1  0  0  0  0  0  0  0  0  0
  198.7703  184.2493  157.6859 C   0  0  0  0  0  0  0  0  0  0  0  0
  197.4012  184.5798  157.6580 C   0  0  0  0  0  0  0  0  0  0  0  0
  196.5905  184.3603  158.7982 C   0  0  0  0  0  0  0  0  0  0  0  0
  197.1428  183.8166  159.9558 C   0  0  0  0  0  0  0  0  0  0  0  0
  198.4952  183.4867  159.9666 C   0  0  0  0  0  0  0  0  0  0  0  0
  199.3273  183.6929  158.8508 C   0  0  0  0  0  0  0  0  0  0  0  0
  195.1190  184.6690  158.7867 C   0  0  1  0  0  0  0  0  0  0  0  0
  194.3298  183.4823  158.3581 N   0  0  1  0  0  0  0  0  0  0  0  0
  194.7658  182.2071  158.9170 C   0  0  1  0  0  0  0  0  0  0  0  0
  193.8561  181.0675  158.4615 C   0  0  2  0  0  0  0  0  0  0  0  0
  192.8998  183.6597  158.6770 C   0  0  2  0  0  0  0  0  0  0  0  0
  203.5045  182.9029  152.5722 C   0  0  2  0  0  0  0  0  0  0  0  0
  203.7234  180.4731  153.5509 H   0  0  0  0  0  0  0  0  0  0  0  0
  204.1582  181.6681  154.7660 H   0  0  0  0  0  0  0  0  0  0  0  0
  200.8390  180.2089  153.7244 H   0  0  0  0  0  0  0  0  0  0  0  0
  199.9411  178.8251  157.7084 H   0  0  0  0  0  0  0  0  0  0  0  0
  202.1662  179.6281  158.4866 H   0  0  0  0  0  0  0  0  0  0  0  0
  203.7151  180.7288  156.8986 H   0  0  0  0  0  0  0  0  0  0  0  0
  198.8880  178.7879  154.1534 H   0  0  0  0  0  0  0  0  0  0  0  0
  198.6149  178.1060  155.7302 H   0  0  0  0  0  0  0  0  0  0  0  0
  196.9407  179.5920  155.8258 H   0  0  0  0  0  0  0  0  0  0  0  0
  196.3817  179.2472  153.3964 H   0  0  0  0  0  0  0  0  0  0  0  0
  195.3080  179.6592  151.2074 H   0  0  0  0  0  0  0  0  0  0  0  0
  195.4872  181.8925  150.1407 H   0  0  0  0  0  0  0  0  0  0  0  0
  196.4163  183.7816  151.2650 H   0  0  0  0  0  0  0  0  0  0  0  0
  198.6838  185.4265  154.9030 H   0  0  0  0  0  0  0  0  0  0  0  0
  200.4428  183.7214  156.4678 H   0  0  0  0  0  0  0  0  0  0  0  0
  200.1718  185.4446  156.6685 H   0  0  0  0  0  0  0  0  0  0  0  0
  196.9263  184.9579  156.7711 H   0  0  0  0  0  0  0  0  0  0  0  0
  196.5482  183.6273  160.8399 H   0  0  0  0  0  0  0  0  0  0  0  0
  198.8821  183.0677  160.8725 H   0  0  0  0  0  0  0  0  0  0  0  0
  200.3778  183.4478  158.9327 H   0  0  0  0  0  0  0  0  0  0  0  0
  194.8124  185.0154  159.7700 H   0  0  0  0  0  0  0  0  0  0  0  0
  194.9362  185.5136  158.1250 H   0  0  0  0  0  0  0  0  0  0  0  0
  195.7703  181.9352  158.5922 H   0  0  0  0  0  0  0  0  0  0  0  0
  194.7496  182.2434  160.0111 H   0  0  0  0  0  0  0  0  0  0  0  0
  194.3467  180.2456  158.9796 H   0  0  0  0  0  0  0  0  0  0  0  0
  193.9275  180.8901  157.3871 H   0  0  0  0  0  0  0  0  0  0  0  0
  192.8103  181.0594  158.8066 H   0  0  0  0  0  0  0  0  0  0  0  0
  192.6983  183.7224  159.7561 H   0  0  0  0  0  0  0  0  0  0  0  0
  192.2427  182.9365  158.1178 H   0  0  0  0  0  0  0  0  0  0  0  0
  192.5901  184.6341  158.4137 H   0  0  0  0  0  0  0  0  0  0  0  0
  202.9430  183.6716  152.0416 H   0  0  0  0  0  0  0  0  0  0  0  0
  203.9082  182.2077  151.8340 H   0  0  0  0  0  0  0  0  0  0  0  0
  204.3335  183.3867  153.0901 H   0  0  0  0  0  0  0  0  0  0  0  0
  197.6808  184.5421  153.0805 H   0  0  0  0  0  0  0  0  0  0  0  0
  194.3499  183.3611  157.3544 H   0  0  0  0  0  0  0  0  0  0  0  0
  1  2  1  0
  1 34  1  0
  2  3  1  0
  2 35  1  6
  2 36  1  0
  3  4  2  0
  3  8  1  0
  4  5  1  0
  4 37  1  0
  5  6  2  0
  5  9  1  0
  6  7  1  0
  6 38  1  0
  7  8  2  0
  7 39  1  0
  8 40  1  0
  9 10  1  0
  9 41  1  6
  9 42  1  0
 10 11  1  0
 10 43  1  0
 11 12  2  0
 11 16  1  0
 12 13  1  0
 13 14  2  0
 13 21  1  0
 14 15  1  0
 14 68  1  0
 15 16  1  0
 15 20  2  0
 16 17  2  0
 17 18  1  0
 17 44  1  0
 18 19  2  0
 18 45  1  0
 19 20  1  0
 19 46  1  0
 20 47  1  0
 21 22  1  0
 21 48  1  0
 22 23  1  0
 22 49  1  6
 22 50  1  0
 23 24  2  0
 23 28  1  0
 24 25  1  0
 24 51  1  0
 25 26  2  0
 25 29  1  0
 26 27  1  0
 26 52  1  0
 27 28  2  0
 27 53  1  0
 28 54  1  0
 29 30  1  0
 29 55  1  1
 29 56  1  0
 30 31  1  0
 30 33  1  0
 30 69  1  6
 31 32  1  0
 31 57  1  1
 31 58  1  0
 32 59  1  1
 32 60  1  0
 32 61  1  0
 33 62  1  1
 33 63  1  0
 33 64  1  0
 34 65  1  6
 34 66  1  0
 34 67  1  0
M  CHG  2  14   1  30   1
M  END
>  <s_epik_cmdline>  (5) 
J2VwaWtfcHl0aG9uJywgJy1waCcsICc3LjAwMDAwMCcsICctcGh0JywgJzIuMDAwMDAwJywgJy1tcycsICcxNicsICctdG4nLCAnOCcsICctbWEnLCAnMjAwJywgJy1pbWFlJywgJzxpbmZpbGUubWFlPicsICctb21hZScsICc8b3V0ZmlsZS5tYWU+Jw==

>  <s_epik_input>  (5) 
W0NIM11PW0NIMl1jMVtjSF1jKFtjSF1bY0hdW2NIXTEpW0NIMl1bTkhdYyhjKGMyMylbY0hdW2NIXVtjSF1bY0hdMyluYyhuMilbTkhdW0NIMl1jNFtjSF1jKFtjSF1bY0hdW2NIXTQpW0NIMl1OKFtDSDNdKVtDSDJdW0NIM10=

>  <s_i_glide_gridfile>  (5) 
ATP-Grid

>  <s_lp_Force_Field>  (5) 
OPLS_2005

>  <s_lp_Variant>  (5) 
m_282030aaa____21928106____22360182____21950844-1

>  <s_lp_label>  (5) 
2111_sdstereoexpander_1_neutralizer_1_epik_1_stereoizer_1

>  <s_m_source_file>  (5) 
ATP-VSW-LIGPREP-002-in.maegz

>  <s_sd_BIOSOLVEIT.INFINISEE\_QUERY\_NAME>  (5) 
Ref-Lig

>  <s_sd_BIOSOLVEIT.INFINISEE\_QUERY\_SMILES>  (5) 
S(c1nc2c(cc1C[NH2+]Cc3ccc(cc3)C[NH+](C)C)cccc2)Cc4ccccc4

>  <s_sd_BIOSOLVEIT.INFINISEE\_REACTION\_NAME>  (5) 
m_282030aaa

>  <s_sd_BIOSOLVEIT.INFINISEE\_REAGENT1\_SMILES>  (5) 
[R1*]NCc1cc(ccc1)COC

>  <s_sd_BIOSOLVEIT.INFINISEE\_REAGENT2\_SMILES>  (5) 
[R2*]c1nc([R1*])c2c(n1)cccc2

>  <s_sd_BIOSOLVEIT.INFINISEE\_REAGENT3\_SMILES>  (5) 
[R2*]NCc1cc(ccc1)CN(CC)C

>  <s_sd_BIOSOLVEIT.INFINISEE\_SPACE>  (5) 
REALSpace_44bn_2023-08

>  <s_vsw_compound_code>  (5) 
67522

>  <s_vsw_variant>  (5) 
67522-1

>  <r_epik_Charging_Adjusted_Penalty>  (5) 
0.096610053474859903

>  <r_epik_Ionization_Penalty>  (5) 
0.044900000000000002

>  <r_epik_Ionization_Penalty_Charging>  (5) 
0.044900000000000002

>  <r_epik_Ionization_Penalty_Neutral>  (5) 
0

>  <r_epik_State_Penalty>  (5) 
0.051700000000000003

>  <r_i_docking_score>  (5) 
-2.4829029808365202

>  <r_i_glide_ecoul>  (5) 
-6.4395103454589799

>  <r_i_glide_eff_state_penalty>  (5) 
0.051700000000000003

>  <r_i_glide_einternal>  (5) 
11.489871025085399

>  <r_i_glide_emodel>  (5) 
-12.7737663363053

>  <r_i_glide_energy>  (5) 
-17.943564414977999

>  <r_i_glide_erotb>  (5) 
0.86413549129325695

>  <r_i_glide_esite>  (5) 
-0.14624305093381901

>  <r_i_glide_evdw>  (5) 
-11.504054069519

>  <r_i_glide_gscore>  (5) 
-2.53460298083652

>  <r_i_glide_hbond>  (5) 
-0.219342895143292

>  <r_i_glide_ligand_efficiency>  (5) 
-0.073026558259897498

>  <r_i_glide_ligand_efficiency_ln>  (5) 
-0.54854291153643098

>  <r_i_glide_ligand_efficiency_sa>  (5) 
-0.23657769966735601

>  <r_i_glide_lipo>  (5) 
-1.20300327075786

>  <r_i_glide_metal>  (5) 
-0

>  <r_i_glide_rewards>  (5) 
-0.289019999999998

>  <r_lp_Energy>  (5) 
19.150455999999998

>  <r_qp_ACxDN^.5/SA>  (5) 
0.013258199999999999

>  <r_qp_CIQPlogS>  (5) 
-6.0090000000000003

>  <r_qp_EA(eV)>  (5) 
0.64000000000000001

>  <r_qp_FISA>  (5) 
36.802999999999997

>  <r_qp_FOSA>  (5) 
294.18200000000002

>  <r_qp_IP(eV)>  (5) 
8.077

>  <r_qp_Jm>  (5) 
1.1017329308727499

>  <r_qp_PISA>  (5) 
383.68400000000003

>  <r_qp_PSA>  (5) 
50.966999999999999

>  <r_qp_PercentHumanOralAbsorption>  (5) 
100

>  <r_qp_QPPCaco>  (5) 
1106.1089999999999

>  <r_qp_QPPMDCK>  (5) 
610.33799999999997

>  <r_qp_QPlogBB>  (5) 
-0.036999999999999998

>  <r_qp_QPlogHERG>  (5) 
-6.4390000000000001

>  <r_qp_QPlogKhsa>  (5) 
0.68500000000000005

>  <r_qp_QPlogKp>  (5) 
-1.853

>  <r_qp_QPlogPC16>  (5) 
14.718999999999999

>  <r_qp_QPlogPo/w>  (5) 
4.9489999999999998

>  <r_qp_QPlogPoct>  (5) 
22.178000000000001

>  <r_qp_QPlogPw>  (5) 
11.401

>  <r_qp_QPlogS>  (5) 
-3.7639999999999998

>  <r_qp_QPpolrz>  (5) 
47.255000000000003

>  <r_qp_SASA>  (5) 
714.66899999999998

>  <r_qp_SAamideO>  (5) 
0

>  <r_qp_SAfluorine>  (5) 
0

>  <r_qp_WPSA>  (5) 
0

>  <r_qp_accptHB>  (5) 
6.7000000000000002

>  <r_qp_dip^2/V>  (5) 
0.0123613

>  <r_qp_dipole>  (5) 
4.1890000000000001

>  <r_qp_donorHB>  (5) 
2

>  <r_qp_glob>  (5) 
0.85470100000000004

>  <r_qp_mol_MW>  (5) 
455.60199999999998

>  <r_qp_volume>  (5) 
1419.4860000000001

>  <r_sd_BIOSOLVEIT.INFINISEE\_FTREES\_SIMILARITY>  (5) 
0.90100000000000002

>  <r_sd_BIOSOLVEIT.LOGP>  (5) 
4.0350000000000001

>  <r_sd_BIOSOLVEIT.MOLECULAR\_WEIGHT>  (5) 
456.61099999999999

>  <r_sd_BIOSOLVEIT.TPSA>  (5) 
63.509999999999998

>  <i_epik_Tot_Q>  (5) 
2

>  <i_epik_Tot_abs_Q>  (5) 
2

>  <i_f3d_flags>  (5) 
0

>  <i_i_glide_confnum>  (5) 
9

>  <i_i_glide_lignum>  (5) 
757

>  <i_i_glide_posenum>  (5) 
1

>  <i_i_glide_rotatable_bonds>  (5) 
11

>  <i_lp_mmshare_version>  (5) 
65135

>  <i_m_ct_format>  (5) 
2

>  <i_m_source_file_index>  (5) 
2111

>  <i_qp_#NandO>  (5) 
6

>  <i_qp_#acid>  (5) 
0

>  <i_qp_#amide>  (5) 
0

>  <i_qp_#amidine>  (5) 
0

>  <i_qp_#amine>  (5) 
1

>  <i_qp_#in34>  (5) 
0

>  <i_qp_#in56>  (5) 
22

>  <i_qp_#metab>  (5) 
6

>  <i_qp_#nonHatm>  (5) 
34

>  <i_qp_#noncon>  (5) 
0

>  <i_qp_#ringatoms>  (5) 
22

>  <i_qp_#rotor>  (5) 
11

>  <i_qp_#rtvFG>  (5) 
0

>  <i_qp_#stars>  (5) 
0

>  <i_qp_CNS>  (5) 
1

>  <i_qp_HumanOralAbsorption>  (5) 
3

>  <i_qp_RuleOfFive>  (5) 
0

>  <i_qp_RuleOfThree>  (5) 
0

>  <i_sd_BIOSOLVEIT.INFINISEE\_REAGENT1\_NAME>  (5) 
21928106

>  <i_sd_BIOSOLVEIT.INFINISEE\_REAGENT2\_NAME>  (5) 
22360182

>  <i_sd_BIOSOLVEIT.INFINISEE\_REAGENT3\_NAME>  (5) 
21950844

>  <i_sd_BIOSOLVEIT.INFINISEE\_RESULT\_RANK>  (5) 
97916

>  <i_sd_version>  (5) 
0

>  <b_lp_Chiralities_Consistent>  (5) 
1

>  <b_sd_chiral_flag>  (5) 
0

>  <acquisition_id>  (5) 
ATP-ACQ-0005

>  <canonical_id>  (5) 
ATP-HTVS-837D7A211A0E

>  <compound_code>  (5) 
67522

>  <title>  (5) 
m_282030aaa____21928106____22360182____21950844

>  <variant>  (5) 
67522-1

>  <selection_arm>  (5) 
descriptor_diversity

>  <priority>  (5) 
P0

>  <wave>  (5) 
1

>  <source_file>  (5) 
运行/运行/ATP-VSW/ATP-VSW-DOCK_HTVS_1-002_lib.maegz

>  <canonical_smiles>  (5) 
CC[N@@H+](C)Cc1cccc(CNc2nc(NCc3cccc(COC)c3)c3ccccc3[nH+]2)c1

$$$$
ATP-ACQ-0006
     RDKit          3D

 50 53  0  0  0  0  0  0  0  0999 V2000
  199.6335  179.9272  156.7406 Cl  0  0  0  0  0  0  0  0  0  0  0  0
  198.6525  180.0880  155.3166 C   0  0  0  0  0  0  0  0  0  0  0  0
  197.6285  181.0613  155.2136 C   0  0  0  0  0  0  0  0  0  0  0  0
  196.8970  181.2332  154.0938 N   0  0  0  0  0  0  0  0  0  0  0  0
  197.1435  180.4595  153.0254 C   0  0  0  0  0  0  0  0  0  0  0  0
  198.1428  179.4456  153.0428 C   0  0  0  0  0  0  0  0  0  0  0  0
  198.9190  179.2462  154.2204 C   0  0  0  0  0  0  0  0  0  0  0  0
  199.9760  178.2202  154.3306 C   0  0  0  0  0  0  0  0  0  0  0  0
  199.8885  177.1874  155.2947 C   0  0  0  0  0  0  0  0  0  0  0  0
  200.8888  176.2054  155.3855 C   0  0  0  0  0  0  0  0  0  0  0  0
  201.9890  176.2437  154.5085 C   0  0  0  0  0  0  0  0  0  0  0  0
  202.0932  177.2746  153.5549 C   0  0  0  0  0  0  0  0  0  0  0  0
  201.0992  178.2637  153.4797 C   0  0  0  0  0  0  0  0  0  0  0  0
  198.3373  178.6499  151.9011 C   0  0  0  0  0  0  0  0  0  0  0  0
  197.5622  178.8671  150.7540 C   0  0  0  0  0  0  0  0  0  0  0  0
  196.5814  179.8692  150.7282 C   0  0  0  0  0  0  0  0  0  0  0  0
  196.3748  180.6654  151.8613 C   0  0  0  0  0  0  0  0  0  0  0  0
  197.2953  182.0034  156.3387 C   0  0  1  0  0  0  0  0  0  0  0  0
  195.9296  181.8270  156.8597 N   0  0  1  0  0  0  0  0  0  0  0  0
  195.7134  182.2198  158.2785 C   0  0  1  0  0  0  0  0  0  0  0  0
  196.4388  183.5276  158.7092 C   0  0  0  0  0  0  0  0  0  0  0  0
  195.7340  184.7406  158.9966 C   0  0  0  0  0  0  0  0  0  0  0  0
  194.3762  184.7781  159.0040 F   0  0  0  0  0  0  0  0  0  0  0  0
  196.4390  185.9336  159.3106 C   0  0  0  0  0  0  0  0  0  0  0  0
  197.8593  185.9607  159.2863 C   0  0  0  0  0  0  0  0  0  0  0  0
  198.5498  184.7500  159.0172 C   0  0  0  0  0  0  0  0  0  0  0  0
  197.8597  183.5451  158.8204 C   0  0  0  0  0  0  0  0  0  0  0  0
  194.1829  182.2186  158.4937 C   0  0  1  0  0  0  0  0  0  0  0  0
  193.5751  180.9387  158.5112 O   0  0  0  0  0  0  0  0  0  0  0  0
  195.2361  182.2609  156.2521 H   0  0  0  0  0  0  0  0  0  0  0  0
  199.0491  177.1580  155.9780 H   0  0  0  0  0  0  0  0  0  0  0  0
  200.8099  175.4274  156.1305 H   0  0  0  0  0  0  0  0  0  0  0  0
  202.7550  175.4857  154.5698 H   0  0  0  0  0  0  0  0  0  0  0  0
  202.9267  177.3045  152.8707 H   0  0  0  0  0  0  0  0  0  0  0  0
  201.1791  179.0528  152.7467 H   0  0  0  0  0  0  0  0  0  0  0  0
  199.0636  177.8578  151.8973 H   0  0  0  0  0  0  0  0  0  0  0  0
  197.7258  178.2513  149.8957 H   0  0  0  0  0  0  0  0  0  0  0  0
  195.9838  180.0384  149.8517 H   0  0  0  0  0  0  0  0  0  0  0  0
  195.6311  181.4519  151.8791 H   0  0  0  0  0  0  0  0  0  0  0  0
  197.9584  181.7487  157.1583 H   0  0  0  0  0  0  0  0  0  0  0  0
  197.4805  183.0324  156.0327 H   0  0  0  0  0  0  0  0  0  0  0  0
  196.1456  181.4418  158.9137 H   0  0  0  0  0  0  0  0  0  0  0  0
  195.8548  186.8193  159.5825 H   0  0  0  0  0  0  0  0  0  0  0  0
  198.3805  186.8974  159.5163 H   0  0  0  0  0  0  0  0  0  0  0  0
  199.6264  184.7894  158.9480 H   0  0  0  0  0  0  0  0  0  0  0  0
  198.4706  182.6506  158.6716 H   0  0  0  0  0  0  0  0  0  0  0  0
  193.9689  182.6301  159.4680 H   0  0  0  0  0  0  0  0  0  0  0  0
  193.6753  182.8623  157.7670 H   0  0  0  0  0  0  0  0  0  0  0  0
  194.1627  180.2747  158.1437 H   0  0  0  0  0  0  0  0  0  0  0  0
  195.7394  180.8249  156.8229 H   0  0  0  0  0  0  0  0  0  0  0  0
  1  2  1  0
  2  3  1  0
  2  7  2  0
  3  4  2  0
  3 18  1  0
  4  5  1  0
  5  6  1  0
  5 17  2  0
  6  7  1  0
  6 14  2  0
  7  8  1  0
  8  9  2  0
  8 13  1  0
  9 10  1  0
  9 31  1  0
 10 11  2  0
 10 32  1  0
 11 12  1  0
 11 33  1  0
 12 13  2  0
 12 34  1  0
 13 35  1  0
 14 15  1  0
 14 36  1  0
 15 16  2  0
 15 37  1  0
 16 17  1  0
 16 38  1  0
 17 39  1  0
 18 19  1  0
 18 40  1  1
 18 41  1  0
 19 20  1  0
 19 30  1  6
 19 50  1  0
 20 21  1  0
 20 28  1  0
 20 42  1  1
 21 22  1  0
 21 27  2  0
 22 23  1  0
 22 24  2  0
 24 25  1  0
 24 43  1  0
 25 26  2  0
 25 44  1  0
 26 27  1  0
 26 45  1  0
 27 46  1  0
 28 29  1  0
 28 47  1  1
 28 48  1  0
 29 49  1  0
M  CHG  1  19   1
M  END
>  <s_epik_cmdline>  (6) 
J2VwaWtfcHl0aG9uJywgJy1waCcsICc3LjAwMDAwMCcsICctcGh0JywgJzIuMDAwMDAwJywgJy1tcycsICcxNicsICctdG4nLCAnOCcsICctbWEnLCAnMjAwJywgJy1pbWFlJywgJzxpbmZpbGUubWFlPicsICctb21hZScsICc8b3V0ZmlsZS5tYWU+Jw==

>  <s_epik_input>  (6) 
W2NIXTFbY0hdW2NIXVtjSF1bY0hdYzEtYyhjKGMyMylbY0hdW2NIXVtjSF1bY0hdMyljKENsKWMobjIpW0NIMl1bTkhdW0NASF0oW0NIMl1bT0hdKWM0YyhGKVtjSF1bY0hdW2NIXVtjSF00

>  <s_i_glide_gridfile>  (6) 
ATP-Grid

>  <s_lp_Force_Field>  (6) 
OPLS_2005

>  <s_lp_Variant>  (6) 
m_2230bbb____8627194____7471132-2

>  <s_lp_label>  (6) 
1102_sdstereoexpander_2_neutralizer_1_epik_1_stereoizer_1

>  <s_m_source_file>  (6) 
ATP-VSW-LIGPREP-002-in.maegz

>  <s_sd_BIOSOLVEIT.INFINISEE\_QUERY\_NAME>  (6) 
Ref-Lig

>  <s_sd_BIOSOLVEIT.INFINISEE\_QUERY\_SMILES>  (6) 
S(c1nc2c(cc1C[NH2+]Cc3ccc(cc3)C[NH+](C)C)cccc2)Cc4ccccc4

>  <s_sd_BIOSOLVEIT.INFINISEE\_REACTION\_NAME>  (6) 
m_2230bbb

>  <s_sd_BIOSOLVEIT.INFINISEE\_REAGENT1\_SMILES>  (6) 
[R1*]NC(c1c(F)cccc1)CO

>  <s_sd_BIOSOLVEIT.INFINISEE\_REAGENT2\_SMILES>  (6) 
[R1*]Cc1nc2c(c(c1Cl)c3ccccc3)cccc2

>  <s_sd_BIOSOLVEIT.INFINISEE\_SPACE>  (6) 
REALSpace_44bn_2023-08

>  <s_vsw_compound_code>  (6) 
35234

>  <s_vsw_variant>  (6) 
35234-2

>  <r_epik_Charging_Adjusted_Penalty>  (6) 
0.47872975795834399

>  <r_epik_Ionization_Penalty>  (6) 
0.2394

>  <r_epik_Ionization_Penalty_Charging>  (6) 
0.2394

>  <r_epik_Ionization_Penalty_Neutral>  (6) 
0

>  <r_epik_State_Penalty>  (6) 
0.2394

>  <r_i_docking_score>  (6) 
-5.6346268537964397

>  <r_i_glide_ecoul>  (6) 
-12.2735805511475

>  <r_i_glide_eff_state_penalty>  (6) 
0.2394

>  <r_i_glide_einternal>  (6) 
17.056259155273398

>  <r_i_glide_emodel>  (6) 
-62.932999187377398

>  <r_i_glide_energy>  (6) 
-46.013380050659201

>  <r_i_glide_erotb>  (6) 
0.59132777380499502

>  <r_i_glide_esite>  (6) 
-0.10000000000000001

>  <r_i_glide_evdw>  (6) 
-33.739799499511697

>  <r_i_glide_gscore>  (6) 
-5.8740268537964404

>  <r_i_glide_hbond>  (6) 
-0.55076729000575897

>  <r_i_glide_ligand_efficiency>  (6) 
-0.194297477717119

>  <r_i_glide_ligand_efficiency_ln>  (6) 
-1.29018666771055

>  <r_i_glide_ligand_efficiency_sa>  (6) 
-0.59694340930859602

>  <r_i_glide_lipo>  (6) 
-1.4205884262155399

>  <r_i_glide_metal>  (6) 
-0

>  <r_i_glide_rewards>  (6) 
-0.86597185373243402

>  <r_lp_Energy>  (6) 
19.453232

>  <r_qp_ACxDN^.5/SA>  (6) 
0.0086514999999999995

>  <r_qp_CIQPlogS>  (6) 
-5.9820000000000002

>  <r_qp_EA(eV)>  (6) 
1.0409999999999999

>  <r_qp_FISA>  (6) 
70.632000000000005

>  <r_qp_FOSA>  (6) 
76.756

>  <r_qp_IP(eV)>  (6) 
8.8979999999999997

>  <r_qp_Jm>  (6) 
0.0129861005336794

>  <r_qp_PISA>  (6) 
481.71600000000001

>  <r_qp_PSA>  (6) 
45.802999999999997

>  <r_qp_PercentHumanOralAbsorption>  (6) 
100

>  <r_qp_QPPCaco>  (6) 
528.43899999999996

>  <r_qp_QPPMDCK>  (6) 
566.91600000000005

>  <r_qp_QPlogBB>  (6) 
-0.033000000000000002

>  <r_qp_QPlogHERG>  (6) 
-7.5999999999999996

>  <r_qp_QPlogKhsa>  (6) 
0.79500000000000004

>  <r_qp_QPlogKp>  (6) 
-2.5150000000000001

>  <r_qp_QPlogPC16>  (6) 
14.035

>  <r_qp_QPlogPo/w>  (6) 
4.8730000000000002

>  <r_qp_QPlogPoct>  (6) 
20.106000000000002

>  <r_qp_QPlogPw>  (6) 
10.670999999999999

>  <r_qp_QPlogS>  (6) 
-4.9809999999999999

>  <r_qp_QPpolrz>  (6) 
43.469000000000001

>  <r_qp_SASA>  (6) 
686.55200000000002

>  <r_qp_SAamideO>  (6) 
0

>  <r_qp_SAfluorine>  (6) 
32.829000000000001

>  <r_qp_WPSA>  (6) 
57.448

>  <r_qp_accptHB>  (6) 
4.2000000000000002

>  <r_qp_dip^2/V>  (6) 
0.020397100000000001

>  <r_qp_dipole>  (6) 
5.024

>  <r_qp_donorHB>  (6) 
2

>  <r_qp_glob>  (6) 
0.81185779999999996

>  <r_qp_mol_MW>  (6) 
406.88600000000002

>  <r_qp_volume>  (6) 
1237.3209999999999

>  <r_sd_BIOSOLVEIT.INFINISEE\_FTREES\_SIMILARITY>  (6) 
0.91300000000000003

>  <r_sd_BIOSOLVEIT.LOGP>  (6) 
4.4912999999999998

>  <r_sd_BIOSOLVEIT.MOLECULAR\_WEIGHT>  (6) 
407.89400000000001

>  <r_sd_BIOSOLVEIT.TPSA>  (6) 
49.729999999999997

>  <i_epik_Tot_Q>  (6) 
1

>  <i_epik_Tot_abs_Q>  (6) 
1

>  <i_f3d_flags>  (6) 
0

>  <i_i_glide_confnum>  (6) 
5

>  <i_i_glide_lignum>  (6) 
365

>  <i_i_glide_posenum>  (6) 
9

>  <i_i_glide_rotatable_bonds>  (6) 
7

>  <i_lp_mmshare_version>  (6) 
65135

>  <i_m_ct_format>  (6) 
2

>  <i_m_source_file_index>  (6) 
1102

>  <i_qp_#NandO>  (6) 
3

>  <i_qp_#acid>  (6) 
0

>  <i_qp_#amide>  (6) 
0

>  <i_qp_#amidine>  (6) 
0

>  <i_qp_#amine>  (6) 
1

>  <i_qp_#in34>  (6) 
0

>  <i_qp_#in56>  (6) 
22

>  <i_qp_#metab>  (6) 
5

>  <i_qp_#nonHatm>  (6) 
29

>  <i_qp_#noncon>  (6) 
0

>  <i_qp_#ringatoms>  (6) 
22

>  <i_qp_#rotor>  (6) 
7

>  <i_qp_#rtvFG>  (6) 
0

>  <i_qp_#stars>  (6) 
1

>  <i_qp_CNS>  (6) 
1

>  <i_qp_HumanOralAbsorption>  (6) 
3

>  <i_qp_RuleOfFive>  (6) 
0

>  <i_qp_RuleOfThree>  (6) 
0

>  <i_sd_BIOSOLVEIT.INFINISEE\_REAGENT1\_NAME>  (6) 
8627194

>  <i_sd_BIOSOLVEIT.INFINISEE\_REAGENT2\_NAME>  (6) 
7471132

>  <i_sd_BIOSOLVEIT.INFINISEE\_RESULT\_RANK>  (6) 
33417

>  <i_sd_version>  (6) 
0

>  <b_lp_Chiralities_Consistent>  (6) 
1

>  <b_sd_chiral_flag>  (6) 
0

>  <acquisition_id>  (6) 
ATP-ACQ-0006

>  <canonical_id>  (6) 
ATP-HTVS-45A004EDB829

>  <compound_code>  (6) 
35234

>  <title>  (6) 
m_2230bbb____8627194____7471132

>  <variant>  (6) 
35234-2

>  <selection_arm>  (6) 
score_calibration

>  <priority>  (6) 
P0

>  <wave>  (6) 
1

>  <source_file>  (6) 
运行/运行/ATP-VSW/ATP-VSW-DOCK_HTVS_1-002_lib.maegz

>  <canonical_smiles>  (6) 
OC[C@@H]([NH2+]Cc1nc2ccccc2c(-c2ccccc2)c1Cl)c1ccccc1F

$$$$
ATP-ACQ-0007
     RDKit          3D

 55 58  0  0  0  0  0  0  0  0999 V2000
  193.1737  183.8352  159.2803 F   0  0  0  0  0  0  0  0  0  0  0  0
  194.3847  184.3889  159.5336 C   0  0  0  0  0  0  0  0  0  0  0  0
  195.5654  183.7997  159.0135 C   0  0  0  0  0  0  0  0  0  0  0  0
  196.8096  184.4244  159.2768 C   0  0  0  0  0  0  0  0  0  0  0  0
  196.8690  185.6197  160.0201 C   0  0  0  0  0  0  0  0  0  0  0  0
  195.6951  186.1896  160.5389 C   0  0  0  0  0  0  0  0  0  0  0  0
  195.7565  187.3192  161.2825 F   0  0  0  0  0  0  0  0  0  0  0  0
  194.4594  185.5650  160.3094 C   0  0  0  0  0  0  0  0  0  0  0  0
  195.4678  182.5161  158.1729 C   0  0  2  0  0  0  0  0  0  0  0  0
  194.9741  181.4382  158.9415 O   0  0  0  0  0  0  0  0  0  0  0  0
  196.8276  182.1000  157.5785 C   0  0  1  0  0  0  0  0  0  0  0  0
  196.7228  181.0797  156.5247 N   0  0  1  0  0  0  0  0  0  0  0  0
  198.0214  180.8118  155.8694 C   0  0  1  0  0  0  0  0  0  0  0  0
  197.8018  180.2503  154.5001 C   0  0  0  0  0  0  0  0  0  0  0  0
  198.4626  179.1767  153.8274 C   0  0  0  0  0  0  0  0  0  0  0  0
  198.0374  179.0457  152.5733 N   0  0  0  0  0  0  0  0  0  0  0  0
  197.1147  180.0164  152.4025 N   0  0  0  0  0  0  0  0  0  0  0  0
  196.9321  180.7411  153.5568 C   0  0  0  0  0  0  0  0  0  0  0  0
  196.4821  180.2130  151.1039 C   0  0  1  0  0  0  0  0  0  0  0  0
  196.9373  181.5242  150.4857 C   0  0  0  0  0  0  0  0  0  0  0  0
  196.3627  182.7460  150.8997 C   0  0  0  0  0  0  0  0  0  0  0  0
  196.7862  183.9585  150.3217 C   0  0  0  0  0  0  0  0  0  0  0  0
  197.7858  183.9581  149.3313 C   0  0  0  0  0  0  0  0  0  0  0  0
  198.3671  182.7438  148.9199 C   0  0  0  0  0  0  0  0  0  0  0  0
  197.9464  181.5292  149.4977 C   0  0  0  0  0  0  0  0  0  0  0  0
  199.5079  178.2550  154.3127 C   0  0  0  0  0  0  0  0  0  0  0  0
  200.4792  177.7388  153.4176 C   0  0  0  0  0  0  0  0  0  0  0  0
  201.4806  176.8516  153.8757 C   0  0  0  0  0  0  0  0  0  0  0  0
  201.5364  176.4968  155.2383 C   0  0  0  0  0  0  0  0  0  0  0  0
  200.5716  177.0019  156.1313 C   0  0  0  0  0  0  0  0  0  0  0  0
  199.5455  177.8527  155.6671 C   0  0  0  0  0  0  0  0  0  0  0  0
  196.3354  180.2183  156.9111 H   0  0  0  0  0  0  0  0  0  0  0  0
  197.7516  184.0313  158.9216 H   0  0  0  0  0  0  0  0  0  0  0  0
  197.8258  186.0869  160.1867 H   0  0  0  0  0  0  0  0  0  0  0  0
  193.5562  186.0039  160.7002 H   0  0  0  0  0  0  0  0  0  0  0  0
  194.7700  182.7129  157.3534 H   0  0  0  0  0  0  0  0  0  0  0  0
  195.1232  180.5979  158.5231 H   0  0  0  0  0  0  0  0  0  0  0  0
  197.2931  182.9623  157.0967 H   0  0  0  0  0  0  0  0  0  0  0  0
  197.5012  181.7489  158.3619 H   0  0  0  0  0  0  0  0  0  0  0  0
  198.6042  181.7345  155.7767 H   0  0  0  0  0  0  0  0  0  0  0  0
  198.5841  180.1532  156.5535 H   0  0  0  0  0  0  0  0  0  0  0  0
  196.2298  181.5604  153.5889 H   0  0  0  0  0  0  0  0  0  0  0  0
  196.7236  179.3750  150.4470 H   0  0  0  0  0  0  0  0  0  0  0  0
  195.4021  180.2197  151.2338 H   0  0  0  0  0  0  0  0  0  0  0  0
  195.6015  182.7637  151.6660 H   0  0  0  0  0  0  0  0  0  0  0  0
  196.3474  184.8909  150.6404 H   0  0  0  0  0  0  0  0  0  0  0  0
  198.1063  184.8889  148.8877 H   0  0  0  0  0  0  0  0  0  0  0  0
  199.1373  182.7430  148.1618 H   0  0  0  0  0  0  0  0  0  0  0  0
  198.4046  180.6029  149.1801 H   0  0  0  0  0  0  0  0  0  0  0  0
  200.4522  177.9971  152.3665 H   0  0  0  0  0  0  0  0  0  0  0  0
  202.2017  176.4438  153.1752 H   0  0  0  0  0  0  0  0  0  0  0  0
  202.3041  175.8211  155.5951 H   0  0  0  0  0  0  0  0  0  0  0  0
  200.6007  176.7302  157.1730 H   0  0  0  0  0  0  0  0  0  0  0  0
  198.7834  178.1812  156.3672 H   0  0  0  0  0  0  0  0  0  0  0  0
  196.0670  181.4474  155.8456 H   0  0  0  0  0  0  0  0  0  0  0  0
  1  2  1  0
  2  3  2  0
  2  8  1  0
  3  4  1  0
  3  9  1  0
  4  5  2  0
  4 33  1  0
  5  6  1  0
  5 34  1  0
  6  7  1  0
  6  8  2  0
  8 35  1  0
  9 10  1  0
  9 11  1  0
  9 36  1  6
 10 37  1  0
 11 12  1  0
 11 38  1  6
 11 39  1  0
 12 13  1  0
 12 32  1  1
 12 55  1  0
 13 14  1  0
 13 40  1  6
 13 41  1  0
 14 15  1  0
 14 18  2  0
 15 16  2  0
 15 26  1  0
 16 17  1  0
 17 18  1  0
 17 19  1  0
 18 42  1  0
 19 20  1  0
 19 43  1  6
 19 44  1  0
 20 21  2  0
 20 25  1  0
 21 22  1  0
 21 45  1  0
 22 23  2  0
 22 46  1  0
 23 24  1  0
 23 47  1  0
 24 25  2  0
 24 48  1  0
 25 49  1  0
 26 27  2  0
 26 31  1  0
 27 28  1  0
 27 50  1  0
 28 29  2  0
 28 51  1  0
 29 30  1  0
 29 52  1  0
 30 31  2  0
 30 53  1  0
 31 54  1  0
M  CHG  1  12   1
M  END
>  <s_epik_cmdline>  (7) 
J2VwaWtfcHl0aG9uJywgJy1waCcsICc3LjAwMDAwMCcsICctcGh0JywgJzIuMDAwMDAwJywgJy1tcycsICcxNicsICctdG4nLCAnOCcsICctbWEnLCAnMjAwJywgJy1pbWFlJywgJzxpbmZpbGUubWFlPicsICctb21hZScsICc8b3V0ZmlsZS5tYWU+Jw==

>  <s_epik_input>  (7) 
RmMoW2NIXTEpW2NIXVtjSF1jKGMxRilbQ0BIXShbT0hdKVtDSDJdW05IXVtDSDJdYzJjKC1jM1tjSF1bY0hdW2NIXVtjSF1bY0hdMylubihbY0hdMilbQ0gyXWM0W2NIXVtjSF1bY0hdW2NIXVtjSF00

>  <s_i_glide_gridfile>  (7) 
ATP-Grid

>  <s_lp_Force_Field>  (7) 
OPLS_2005

>  <s_lp_Variant>  (7) 
m_270004bbb____16500566____7548060-2

>  <s_lp_label>  (7) 
2072_sdstereoexpander_2_neutralizer_1_epik_1_stereoizer_1

>  <s_m_source_file>  (7) 
ATP-VSW-LIGPREP-001-in.maegz

>  <s_sd_BIOSOLVEIT.INFINISEE\_QUERY\_NAME>  (7) 
Ref-Lig

>  <s_sd_BIOSOLVEIT.INFINISEE\_QUERY\_SMILES>  (7) 
S(c1nc2c(cc1C[NH2+]Cc3ccc(cc3)C[NH+](C)C)cccc2)Cc4ccccc4

>  <s_sd_BIOSOLVEIT.INFINISEE\_REACTION\_NAME>  (7) 
m_270004bbb

>  <s_sd_BIOSOLVEIT.INFINISEE\_REAGENT1\_SMILES>  (7) 
[R1*]NCC(O)c1c(F)cc(F)cc1

>  <s_sd_BIOSOLVEIT.INFINISEE\_REAGENT2\_SMILES>  (7) 
[R1*]CC=1C(=NN(C1)Cc2ccccc2)c3ccccc3

>  <s_sd_BIOSOLVEIT.INFINISEE\_SPACE>  (7) 
REALSpace_44bn_2023-08

>  <s_vsw_compound_code>  (7) 
66273

>  <s_vsw_variant>  (7) 
66273-2

>  <r_epik_Charging_Adjusted_Penalty>  (7) 
0.14210174952166199

>  <r_epik_Ionization_Penalty>  (7) 
0.071099999999999997

>  <r_epik_Ionization_Penalty_Charging>  (7) 
0.071099999999999997

>  <r_epik_Ionization_Penalty_Neutral>  (7) 
0

>  <r_epik_State_Penalty>  (7) 
0.071099999999999997

>  <r_i_docking_score>  (7) 
-6.7221722658838203

>  <r_i_glide_ecoul>  (7) 
-15.335029602050801

>  <r_i_glide_eff_state_penalty>  (7) 
0.071099999999999997

>  <r_i_glide_einternal>  (7) 
6.1641049385070801

>  <r_i_glide_emodel>  (7) 
-78.007283716339998

>  <r_i_glide_energy>  (7) 
-50.154636383056598

>  <r_i_glide_erotb>  (7) 
0.78365562477255302

>  <r_i_glide_esite>  (7) 
-0.128389902488562

>  <r_i_glide_evdw>  (7) 
-34.819606781005902

>  <r_i_glide_gscore>  (7) 
-6.7932722658838198

>  <r_i_glide_hbond>  (7) 
-0.35999999999999999

>  <r_i_glide_ligand_efficiency>  (7) 
-0.21684426664141301

>  <r_i_glide_ligand_efficiency_ln>  (7) 
-1.5160558557959001

>  <r_i_glide_ligand_efficiency_sa>  (7) 
-0.681190383029604

>  <r_i_glide_lipo>  (7) 
-1.9347941619768101

>  <r_i_glide_metal>  (7) 
-0

>  <r_i_glide_rewards>  (7) 
-1.11250904683309

>  <r_lp_Energy>  (7) 
18.847131000000001

>  <r_lp_tautomer_probability>  (7) 
1

>  <r_qp_ACxDN^.5/SA>  (7) 
0.0098610999999999994

>  <r_qp_CIQPlogS>  (7) 
-6.1079999999999997

>  <r_qp_EA(eV)>  (7) 
0.58799999999999997

>  <r_qp_FISA>  (7) 
55.247

>  <r_qp_FOSA>  (7) 
113.124

>  <r_qp_IP(eV)>  (7) 
8.7300000000000004

>  <r_qp_Jm>  (7) 
0.088994429101352607

>  <r_qp_PISA>  (7) 
450.80500000000001

>  <r_qp_PSA>  (7) 
48.171999999999997

>  <r_qp_PercentHumanOralAbsorption>  (7) 
100

>  <r_qp_QPPCaco>  (7) 
739.42200000000003

>  <r_qp_QPPMDCK>  (7) 
788.99599999999998

>  <r_qp_QPlogBB>  (7) 
0.097000000000000003

>  <r_qp_QPlogHERG>  (7) 
-6.9359999999999999

>  <r_qp_QPlogKhsa>  (7) 
0.78200000000000003

>  <r_qp_QPlogKp>  (7) 
-2.2440000000000002

>  <r_qp_QPlogPC16>  (7) 
13.715999999999999

>  <r_qp_QPlogPo/w>  (7) 
4.992

>  <r_qp_QPlogPoct>  (7) 
20.597999999999999

>  <r_qp_QPlogPw>  (7) 
10.597

>  <r_qp_QPlogS>  (7) 
-4.4290000000000003

>  <r_qp_QPpolrz>  (7) 
44.055

>  <r_qp_SASA>  (7) 
674.04300000000001

>  <r_qp_SAamideO>  (7) 
0

>  <r_qp_SAfluorine>  (7) 
54.866

>  <r_qp_WPSA>  (7) 
54.866

>  <r_qp_accptHB>  (7) 
4.7000000000000002

>  <r_qp_dip^2/V>  (7) 
0.023676699999999998

>  <r_qp_dipole>  (7) 
5.4950000000000001

>  <r_qp_donorHB>  (7) 
2

>  <r_qp_glob>  (7) 
0.84379780000000004

>  <r_qp_mol_MW>  (7) 
419.47300000000001

>  <r_qp_volume>  (7) 
1275.385

>  <r_sd_BIOSOLVEIT.INFINISEE\_FTREES\_SIMILARITY>  (7) 
0.90100000000000002

>  <r_sd_BIOSOLVEIT.LOGP>  (7) 
3.6736

>  <r_sd_BIOSOLVEIT.MOLECULAR\_WEIGHT>  (7) 
420.48099999999999

>  <r_sd_BIOSOLVEIT.TPSA>  (7) 
54.659999999999997

>  <i_epik_Tot_Q>  (7) 
1

>  <i_epik_Tot_abs_Q>  (7) 
1

>  <i_f3d_flags>  (7) 
0

>  <i_i_glide_confnum>  (7) 
7

>  <i_i_glide_lignum>  (7) 
645

>  <i_i_glide_posenum>  (7) 
11

>  <i_i_glide_rotatable_bonds>  (7) 
9

>  <i_lp_mmshare_version>  (7) 
65135

>  <i_m_ct_format>  (7) 
2

>  <i_m_source_file_index>  (7) 
2072

>  <i_qp_#NandO>  (7) 
4

>  <i_qp_#acid>  (7) 
0

>  <i_qp_#amide>  (7) 
0

>  <i_qp_#amidine>  (7) 
0

>  <i_qp_#amine>  (7) 
1

>  <i_qp_#in34>  (7) 
0

>  <i_qp_#in56>  (7) 
23

>  <i_qp_#metab>  (7) 
4

>  <i_qp_#nonHatm>  (7) 
31

>  <i_qp_#noncon>  (7) 
0

>  <i_qp_#ringatoms>  (7) 
23

>  <i_qp_#rotor>  (7) 
8

>  <i_qp_#rtvFG>  (7) 
0

>  <i_qp_#stars>  (7) 
1

>  <i_qp_CNS>  (7) 
1

>  <i_qp_HumanOralAbsorption>  (7) 
3

>  <i_qp_RuleOfFive>  (7) 
0

>  <i_qp_RuleOfThree>  (7) 
0

>  <i_sd_BIOSOLVEIT.INFINISEE\_REAGENT1\_NAME>  (7) 
16500566

>  <i_sd_BIOSOLVEIT.INFINISEE\_REAGENT2\_NAME>  (7) 
7548060

>  <i_sd_BIOSOLVEIT.INFINISEE\_RESULT\_RANK>  (7) 
95448

>  <i_sd_version>  (7) 
0

>  <b_lp_Chiralities_Consistent>  (7) 
1

>  <b_sd_chiral_flag>  (7) 
0

>  <acquisition_id>  (7) 
ATP-ACQ-0007

>  <canonical_id>  (7) 
ATP-HTVS-D6043925B579

>  <compound_code>  (7) 
66273

>  <title>  (7) 
m_270004bbb____16500566____7548060

>  <variant>  (7) 
66273-2

>  <selection_arm>  (7) 
exploitation

>  <priority>  (7) 
P0

>  <wave>  (7) 
1

>  <source_file>  (7) 
运行/运行/ATP-VSW/ATP-VSW-DOCK_HTVS_1-001_lib/ATP-VSW-DOCK_HTVS_1-001_lib

>  <canonical_smiles>  (7) 
O[C@H](C[NH2+]Cc1cn(Cc2ccccc2)nc1-c1ccccc1)c1ccc(F)cc1F

$$$$
ATP-ACQ-0008
     RDKit          3D

 45 48  0  0  0  0  0  0  0  0999 V2000
  198.9642  186.1885  153.9333 Cl  0  0  0  0  0  0  0  0  0  0  0  0
  199.4172  187.8125  154.3434 C   0  0  0  0  0  0  0  0  0  0  0  0
  199.6577  188.2399  155.6797 C   0  0  0  0  0  0  0  0  0  0  0  0
  200.0597  189.5764  155.9041 C   0  0  0  0  0  0  0  0  0  0  0  0
  200.2159  190.4750  154.8302 C   0  0  0  0  0  0  0  0  0  0  0  0
  199.9616  190.0456  153.5143 C   0  0  0  0  0  0  0  0  0  0  0  0
  200.1077  190.9120  152.4855 F   0  0  0  0  0  0  0  0  0  0  0  0
  199.5611  188.7177  153.2766 C   0  0  0  0  0  0  0  0  0  0  0  0
  199.5239  187.3153  156.8878 C   0  0  1  0  0  0  0  0  0  0  0  0
  198.1580  186.8769  157.1940 N   0  0  0  0  0  0  0  0  0  0  0  0
  198.1803  185.7535  158.1600 C   0  0  2  0  0  0  0  0  0  0  0  0
  198.8868  184.5258  157.5702 C   0  0  0  0  0  0  0  0  0  0  0  0
  199.7711  183.7243  158.3390 C   0  0  0  0  0  0  0  0  0  0  0  0
  200.0093  184.0169  159.6418 F   0  0  0  0  0  0  0  0  0  0  0  0
  200.3987  182.6071  157.7434 C   0  0  0  0  0  0  0  0  0  0  0  0
  200.1523  182.2852  156.3963 C   0  0  0  0  0  0  0  0  0  0  0  0
  199.2521  183.0625  155.6443 C   0  0  0  0  0  0  0  0  0  0  0  0
  198.5954  184.1518  156.2432 C   0  0  0  0  0  0  0  0  0  0  0  0
  196.7971  185.3509  158.6967 C   0  0  0  0  0  0  0  0  0  0  0  0
  196.0901  186.2299  159.5653 C   0  0  0  0  0  0  0  0  0  0  0  0
  196.6012  187.5089  159.9170 N   0  0  0  0  0  0  0  0  0  0  0  0
  197.2206  188.3767  159.0939 C   0  0  0  0  0  0  0  0  0  0  0  0
  197.6662  189.4380  159.5001 O   0  0  0  0  0  0  0  0  0  0  0  0
  197.2973  188.0331  157.5946 C   0  0  1  0  0  0  0  0  0  0  0  0
  194.8695  185.8200  160.1367 C   0  0  0  0  0  0  0  0  0  0  0  0
  194.3112  184.5677  159.8153 C   0  0  0  0  0  0  0  0  0  0  0  0
  194.9934  183.6971  158.9555 C   0  0  0  0  0  0  0  0  0  0  0  0
  194.3373  182.1456  158.5889 Cl  0  0  0  0  0  0  0  0  0  0  0  0
  196.2217  184.0852  158.4035 C   0  0  0  0  0  0  0  0  0  0  0  0
  200.2545  189.9121  156.9124 H   0  0  0  0  0  0  0  0  0  0  0  0
  200.5332  191.4961  155.0211 H   0  0  0  0  0  0  0  0  0  0  0  0
  199.3678  188.3878  152.2672 H   0  0  0  0  0  0  0  0  0  0  0  0
  200.1902  186.4811  156.6726 H   0  0  0  0  0  0  0  0  0  0  0  0
  199.9499  187.7912  157.7707 H   0  0  0  0  0  0  0  0  0  0  0  0
  198.7632  186.0781  159.0242 H   0  0  0  0  0  0  0  0  0  0  0  0
  201.0483  181.9814  158.3391 H   0  0  0  0  0  0  0  0  0  0  0  0
  200.6195  181.4292  155.9432 H   0  0  0  0  0  0  0  0  0  0  0  0
  199.0397  182.8280  154.6121 H   0  0  0  0  0  0  0  0  0  0  0  0
  197.8629  184.7131  155.6741 H   0  0  0  0  0  0  0  0  0  0  0  0
  196.4225  187.8442  160.8536 H   0  0  0  0  0  0  0  0  0  0  0  0
  197.5629  188.9454  157.0527 H   0  0  0  0  0  0  0  0  0  0  0  0
  196.2832  187.8118  157.2588 H   0  0  0  0  0  0  0  0  0  0  0  0
  194.3309  186.4758  160.8058 H   0  0  0  0  0  0  0  0  0  0  0  0
  193.3678  184.2612  160.2276 H   0  0  0  0  0  0  0  0  0  0  0  0
  196.6902  183.3538  157.7623 H   0  0  0  0  0  0  0  0  0  0  0  0
  1  2  1  0
  2  3  2  0
  2  8  1  0
  3  4  1  0
  3  9  1  0
  4  5  2  0
  4 30  1  0
  5  6  1  0
  5 31  1  0
  6  7  1  0
  6  8  2  0
  8 32  1  0
  9 10  1  0
  9 33  1  6
  9 34  1  0
 10 11  1  0
 10 24  1  0
 11 12  1  0
 11 19  1  0
 11 35  1  1
 12 13  1  0
 12 18  2  0
 13 14  1  0
 13 15  2  0
 15 16  1  0
 15 36  1  0
 16 17  2  0
 16 37  1  0
 17 18  1  0
 17 38  1  0
 18 39  1  0
 19 20  2  0
 19 29  1  0
 20 21  1  0
 20 25  1  0
 21 22  1  0
 21 40  1  0
 22 23  2  0
 22 24  1  0
 24 41  1  6
 24 42  1  0
 25 26  2  0
 25 43  1  0
 26 27  1  0
 26 44  1  0
 27 28  1  0
 27 29  2  0
 29 45  1  0
M  END
>  <s_epik_cmdline>  (8) 
J2VwaWtfcHl0aG9uJywgJy1waCcsICc3LjAwMDAwMCcsICctcGh0JywgJzIuMDAwMDAwJywgJy1tcycsICcxNicsICctdG4nLCAnOCcsICctbWEnLCAnMjAwJywgJy1pbWFlJywgJzxpbmZpbGUubWFlPicsICctb21hZScsICc8b3V0ZmlsZS5tYWU+Jw==

>  <s_epik_input>  (8) 
W2NIXTFbY0hdW2NIXVtjSF1jKEYpYzFbQ0BIXTJOKFtDSDJdYyhjM0NsKVtjSF1bY0hdYyhGKVtjSF0zKVtDSDJdQyg9TylbTkhdYyhjMjQpW2NIXVtjSF1jKENsKVtjSF00

>  <s_i_glide_gridfile>  (8) 
ATP-Grid

>  <s_lp_Force_Field>  (8) 
OPLS_2005

>  <s_lp_Variant>  (8) 
m_2230bdc____14772912____666388-2

>  <s_lp_label>  (8) 
1556_sdstereoexpander_3_neutralizer_1_epik_1_stereoizer_1

>  <s_m_source_file>  (8) 
ATP-VSW-LIGPREP-001-in.maegz

>  <s_sd_BIOSOLVEIT.INFINISEE\_QUERY\_NAME>  (8) 
Ref-Lig

>  <s_sd_BIOSOLVEIT.INFINISEE\_QUERY\_SMILES>  (8) 
S(c1nc2c(cc1C[NH2+]Cc3ccc(cc3)C[NH+](C)C)cccc2)Cc4ccccc4

>  <s_sd_BIOSOLVEIT.INFINISEE\_REACTION\_NAME>  (8) 
m_2230bdc

>  <s_sd_BIOSOLVEIT.INFINISEE\_REAGENT1\_SMILES>  (8) 
[R1*]N1C(c2c(F)cccc2)c3c(NC(=O)C1)ccc(Cl)c3

>  <s_sd_BIOSOLVEIT.INFINISEE\_REAGENT2\_SMILES>  (8) 
[R1*]Cc1c(Cl)cc(F)cc1

>  <s_sd_BIOSOLVEIT.INFINISEE\_SPACE>  (8) 
REALSpace_44bn_2023-08

>  <s_vsw_compound_code>  (8) 
49761

>  <s_vsw_variant>  (8) 
49761-2

>  <r_epik_Charging_Adjusted_Penalty>  (8) 
0.0045720550350946999

>  <r_epik_Ionization_Penalty>  (8) 
0.0045999999999999999

>  <r_epik_Ionization_Penalty_Charging>  (8) 
0

>  <r_epik_Ionization_Penalty_Neutral>  (8) 
0.0045999999999999999

>  <r_epik_State_Penalty>  (8) 
0.0045999999999999999

>  <r_i_docking_score>  (8) 
-1.47586439099717

>  <r_i_glide_ecoul>  (8) 
1.4484279155731199

>  <r_i_glide_eff_state_penalty>  (8) 
0.0045999999999999999

>  <r_i_glide_einternal>  (8) 
0.026060214266180999

>  <r_i_glide_emodel>  (8) 
-33.2876245176287

>  <r_i_glide_energy>  (8) 
-30.6318409442902

>  <r_i_glide_erotb>  (8) 
0.318103201506231

>  <r_i_glide_esite>  (8) 
0

>  <r_i_glide_evdw>  (8) 
-32.080268859863303

>  <r_i_glide_gscore>  (8) 
-1.48046439099717

>  <r_i_glide_hbond>  (8) 
0

>  <r_i_glide_ligand_efficiency>  (8) 
-0.050891875551626498

>  <r_i_glide_ligand_efficiency_ln>  (8) 
-0.33793552084648698

>  <r_i_glide_ligand_efficiency_sa>  (8) 
-0.15635596537247301

>  <r_i_glide_lipo>  (8) 
-1.39509205860409

>  <r_i_glide_metal>  (8) 
-0

>  <r_i_glide_rewards>  (8) 
0.98327372175788796

>  <r_lp_Energy>  (8) 
53.642161000000002

>  <r_qp_ACxDN^.5/SA>  (8) 
0.0070555000000000001

>  <r_qp_CIQPlogS>  (8) 
-6.1369999999999996

>  <r_qp_EA(eV)>  (8) 
0.55100000000000005

>  <r_qp_FISA>  (8) 
67.558000000000007

>  <r_qp_FOSA>  (8) 
35.514000000000003

>  <r_qp_IP(eV)>  (8) 
9.4879999999999995

>  <r_qp_Jm>  (8) 
0.00052090457132236104

>  <r_qp_PISA>  (8) 
349.14800000000002

>  <r_qp_PSA>  (8) 
42.628

>  <r_qp_PercentHumanOralAbsorption>  (8) 
100

>  <r_qp_QPPCaco>  (8) 
565.12300000000005

>  <r_qp_QPPMDCK>  (8) 
3068.4349999999999

>  <r_qp_QPlogBB>  (8) 
0.65900000000000003

>  <r_qp_QPlogHERG>  (8) 
-6.5049999999999999

>  <r_qp_QPlogKhsa>  (8) 
0.83799999999999997

>  <r_qp_QPlogKp>  (8) 
-3.4049999999999998

>  <r_qp_QPlogPC16>  (8) 
12.478

>  <r_qp_QPlogPo/w>  (8) 
4.8520000000000003

>  <r_qp_QPlogPoct>  (8) 
19.192

>  <r_qp_QPlogPw>  (8) 
9.609

>  <r_qp_QPlogS>  (8) 
-5.5149999999999997

>  <r_qp_QPpolrz>  (8) 
42.597999999999999

>  <r_qp_SASA>  (8) 
637.798

>  <r_qp_SAamideO>  (8) 
0

>  <r_qp_SAfluorine>  (8) 
78.106999999999999

>  <r_qp_WPSA>  (8) 
185.577

>  <r_qp_accptHB>  (8) 
4.5

>  <r_qp_dip^2/V>  (8) 
0.021811500000000001

>  <r_qp_dipole>  (8) 
5.0449999999999999

>  <r_qp_donorHB>  (8) 
1

>  <r_qp_glob>  (8) 
0.84046549999999998

>  <r_qp_mol_MW>  (8) 
433.28399999999999

>  <r_qp_volume>  (8) 
1166.963

>  <r_sd_BIOSOLVEIT.INFINISEE\_FTREES\_SIMILARITY>  (8) 
0.90600000000000003

>  <r_sd_BIOSOLVEIT.LOGP>  (8) 
4.3982000000000001

>  <r_sd_BIOSOLVEIT.MOLECULAR\_WEIGHT>  (8) 
434.291

>  <r_sd_BIOSOLVEIT.TPSA>  (8) 
33.539999999999999

>  <i_epik_Tot_Q>  (8) 
0

>  <i_epik_Tot_abs_Q>  (8) 
0

>  <i_f3d_flags>  (8) 
0

>  <i_i_glide_confnum>  (8) 
4

>  <i_i_glide_lignum>  (8) 
412

>  <i_i_glide_posenum>  (8) 
17

>  <i_i_glide_rotatable_bonds>  (8) 
3

>  <i_lp_mmshare_version>  (8) 
65135

>  <i_m_ct_format>  (8) 
2

>  <i_m_source_file_index>  (8) 
1556

>  <i_qp_#NandO>  (8) 
3

>  <i_qp_#acid>  (8) 
0

>  <i_qp_#amide>  (8) 
0

>  <i_qp_#amidine>  (8) 
0

>  <i_qp_#amine>  (8) 
1

>  <i_qp_#in34>  (8) 
0

>  <i_qp_#in56>  (8) 
18

>  <i_qp_#metab>  (8) 
6

>  <i_qp_#nonHatm>  (8) 
29

>  <i_qp_#noncon>  (8) 
2

>  <i_qp_#ringatoms>  (8) 
23

>  <i_qp_#rotor>  (8) 
2

>  <i_qp_#rtvFG>  (8) 
0

>  <i_qp_#stars>  (8) 
1

>  <i_qp_CNS>  (8) 
2

>  <i_qp_HumanOralAbsorption>  (8) 
3

>  <i_qp_RuleOfFive>  (8) 
0

>  <i_qp_RuleOfThree>  (8) 
0

>  <i_sd_BIOSOLVEIT.INFINISEE\_REAGENT1\_NAME>  (8) 
14772912

>  <i_sd_BIOSOLVEIT.INFINISEE\_REAGENT2\_NAME>  (8) 
666388

>  <i_sd_BIOSOLVEIT.INFINISEE\_RESULT\_RANK>  (8) 
62772

>  <i_sd_version>  (8) 
0

>  <b_lp_Chiralities_Consistent>  (8) 
1

>  <b_sd_chiral_flag>  (8) 
0

>  <acquisition_id>  (8) 
ATP-ACQ-0008

>  <canonical_id>  (8) 
ATP-HTVS-43E54E69D2FC

>  <compound_code>  (8) 
49761

>  <title>  (8) 
m_2230bdc____14772912____666388

>  <variant>  (8) 
49761-2

>  <selection_arm>  (8) 
descriptor_diversity

>  <priority>  (8) 
P0

>  <wave>  (8) 
1

>  <source_file>  (8) 
运行/运行/ATP-VSW/ATP-VSW-DOCK_HTVS_1-001_lib/ATP-VSW-DOCK_HTVS_1-001_lib

>  <canonical_smiles>  (8) 
O=C1CN(Cc2ccc(F)cc2Cl)[C@H](c2ccccc2F)c2cc(Cl)ccc2N1

$$$$
ATP-ACQ-0009
     RDKit          3D

 60 63  0  0  0  0  0  0  0  0999 V2000
  197.6597  181.2365  150.3928 F   0  0  0  0  0  0  0  0  0  0  0  0
  197.9251  180.7092  151.6149 C   0  0  0  0  0  0  0  0  0  0  0  0
  196.8730  180.3288  152.4871 C   0  0  0  0  0  0  0  0  0  0  0  0
  197.1578  179.7830  153.7776 C   0  0  0  0  0  0  0  0  0  0  0  0
  198.5214  179.6670  154.2204 C   0  0  0  0  0  0  0  0  0  0  0  0
  199.5601  180.1398  153.3681 C   0  0  0  0  0  0  0  0  0  0  0  0
  199.2560  180.5818  152.0734 C   0  0  0  0  0  0  0  0  0  0  0  0
  198.8166  179.1157  155.6297 C   0  0  1  0  0  0  0  0  0  0  0  0
  199.9341  178.0940  155.6808 N   0  0  1  0  0  0  0  0  0  0  0  0
  201.3645  178.5516  155.5260 C   0  0  2  0  0  0  0  0  0  0  0  0
  199.8406  177.1978  156.8630 C   0  0  2  0  0  0  0  0  0  0  0  0
  198.9859  180.2454  156.6738 C   0  0  1  0  0  0  0  0  0  0  0  0
  198.0320  181.3409  156.5080 N   0  0  0  0  0  0  0  0  0  0  0  0
  198.1146  182.3856  157.4391 C   0  0  0  0  0  0  0  0  0  0  0  0
  196.9347  182.8869  158.0640 C   0  0  0  0  0  0  0  0  0  0  0  0
  197.0698  183.9411  159.0114 C   0  0  0  0  0  0  0  0  0  0  0  0
  198.2845  184.4159  159.3096 N   0  0  0  0  0  0  0  0  0  0  0  0
  199.4297  183.9742  158.7408 C   0  0  0  0  0  0  0  0  0  0  0  0
  199.3676  182.9392  157.7967 C   0  0  0  0  0  0  0  0  0  0  0  0
  200.7250  184.6979  159.0590 C   0  0  1  0  0  0  0  0  0  0  0  0
  200.5491  186.0293  159.5374 O   0  0  0  0  0  0  0  0  0  0  0  0
  199.9107  186.9843  158.7615 C   0  0  0  0  0  0  0  0  0  0  0  0
  199.7702  188.2682  159.3289 C   0  0  0  0  0  0  0  0  0  0  0  0
  199.0327  189.2704  158.6624 C   0  0  0  0  0  0  0  0  0  0  0  0
  198.4197  188.9980  157.4228 C   0  0  0  0  0  0  0  0  0  0  0  0
  198.5691  187.7268  156.8389 C   0  0  0  0  0  0  0  0  0  0  0  0
  199.3350  186.7447  157.4841 C   0  0  0  0  0  0  0  0  0  0  0  0
  195.9186  184.5022  159.6137 C   0  0  0  0  0  0  0  0  0  0  0  0
  194.6539  183.9671  159.3332 C   0  0  0  0  0  0  0  0  0  0  0  0
  194.5252  182.8916  158.4441 C   0  0  0  0  0  0  0  0  0  0  0  0
  193.2846  182.3961  158.1615 O   0  0  0  0  0  0  0  0  0  0  0  0
  195.6587  182.3627  157.7931 C   0  0  0  0  0  0  0  0  0  0  0  0
  195.8325  180.4734  152.1632 H   0  0  0  0  0  0  0  0  0  0  0  0
  196.3400  179.5232  154.4348 H   0  0  0  0  0  0  0  0  0  0  0  0
  200.5830  180.2414  153.6362 H   0  0  0  0  0  0  0  0  0  0  0  0
  200.0775  180.8761  151.4481 H   0  0  0  0  0  0  0  0  0  0  0  0
  197.8946  178.5944  155.9422 H   0  0  0  0  0  0  0  0  0  0  0  0
  201.6019  179.3354  156.2543 H   0  0  0  0  0  0  0  0  0  0  0  0
  201.6315  178.8551  154.5261 H   0  0  0  0  0  0  0  0  0  0  0  0
  202.0359  177.7250  155.7640 H   0  0  0  0  0  0  0  0  0  0  0  0
  199.9697  177.7656  157.7940 H   0  0  0  0  0  0  0  0  0  0  0  0
  200.6544  176.4584  156.8335 H   0  0  0  0  0  0  0  0  0  0  0  0
  198.9035  176.6341  156.9266 H   0  0  0  0  0  0  0  0  0  0  0  0
  198.9274  179.8262  157.6899 H   0  0  0  0  0  0  0  0  0  0  0  0
  199.9615  180.7055  156.5611 H   0  0  0  0  0  0  0  0  0  0  0  0
  197.8598  181.6075  155.5430 H   0  0  0  0  0  0  0  0  0  0  0  0
  200.2799  182.6398  157.2982 H   0  0  0  0  0  0  0  0  0  0  0  0
  201.2267  184.1269  159.8434 H   0  0  0  0  0  0  0  0  0  0  0  0
  201.3950  184.6939  158.1986 H   0  0  0  0  0  0  0  0  0  0  0  0
  200.1974  188.4870  160.3000 H   0  0  0  0  0  0  0  0  0  0  0  0
  198.9277  190.2480  159.1099 H   0  0  0  0  0  0  0  0  0  0  0  0
  197.8525  189.7612  156.9087 H   0  0  0  0  0  0  0  0  0  0  0  0
  198.0872  187.4865  155.8995 H   0  0  0  0  0  0  0  0  0  0  0  0
  199.4046  185.7945  156.9797 H   0  0  0  0  0  0  0  0  0  0  0  0
  196.0163  185.3333  160.3033 H   0  0  0  0  0  0  0  0  0  0  0  0
  193.7713  184.3956  159.7947 H   0  0  0  0  0  0  0  0  0  0  0  0
  193.2076  182.2724  157.1940 H   0  0  0  0  0  0  0  0  0  0  0  0
  195.5429  181.5383  157.1004 H   0  0  0  0  0  0  0  0  0  0  0  0
  198.3607  185.2328  159.9168 H   0  0  0  0  0  0  0  0  0  0  0  0
  199.7213  177.4873  154.9069 H   0  0  0  0  0  0  0  0  0  0  0  0
  1  2  1  0
  2  3  1  0
  2  7  2  0
  3  4  2  0
  3 33  1  0
  4  5  1  0
  4 34  1  0
  5  6  2  0
  5  8  1  0
  6  7  1  0
  6 35  1  0
  7 36  1  0
  8  9  1  0
  8 12  1  0
  8 37  1  1
  9 10  1  0
  9 11  1  0
  9 60  1  6
 10 38  1  1
 10 39  1  0
 10 40  1  0
 11 41  1  1
 11 42  1  0
 11 43  1  0
 12 13  1  0
 12 44  1  1
 12 45  1  0
 13 14  1  0
 13 46  1  0
 14 15  1  0
 14 19  2  0
 15 16  1  0
 15 32  2  0
 16 17  1  0
 16 28  2  0
 17 18  2  0
 17 59  1  0
 18 19  1  0
 18 20  1  0
 19 47  1  0
 20 21  1  0
 20 48  1  1
 20 49  1  0
 21 22  1  0
 22 23  2  0
 22 27  1  0
 23 24  1  0
 23 50  1  0
 24 25  2  0
 24 51  1  0
 25 26  1  0
 25 52  1  0
 26 27  2  0
 26 53  1  0
 27 54  1  0
 28 29  1  0
 28 55  1  0
 29 30  2  0
 29 56  1  0
 30 31  1  0
 30 32  1  0
 31 57  1  0
 32 58  1  0
M  CHG  2   9   1  17   1
M  END
>  <s_epik_cmdline>  (9) 
J2VwaWtfcHl0aG9uJywgJy1waCcsICc3LjAwMDAwMCcsICctcGh0JywgJzIuMDAwMDAwJywgJy1tcycsICcxNicsICctdG4nLCAnOCcsICctbWEnLCAnMjAwJywgJy1pbWFlJywgJzxpbmZpbGUubWFlPicsICctb21hZScsICc8b3V0ZmlsZS5tYWU+Jw==

>  <s_epik_input>  (9) 
RmMxW2NIXVtjSF1jKFtjSF1bY0hdMSlbQ0BASF0oTihbQ0gzXSlbQ0gzXSlbQ0gyXVtOSF1jMltjSF1jKG5jKGMyMylbY0hdW2NIXWMoW09IXSlbY0hdMylbQ0gyXU9jNFtjSF1bY0hdW2NIXVtjSF1bY0hdNA==

>  <s_i_glide_gridfile>  (9) 
ATP-Grid

>  <s_lp_Force_Field>  (9) 
OPLS_2005

>  <s_lp_Variant>  (9) 
YAS_R004____OTV1509977____OTV7113231893____OTV7020431351-1

>  <s_lp_label>  (9) 
15_sdstereoexpander_1_neutralizer_1_epik_1_stereoizer_1

>  <s_m_source_file>  (9) 
ATP-VSW-LIGPREP-002-in.maegz

>  <s_sd_BIOSOLVEIT.INFINISEE\_QUERY\_NAME>  (9) 
Ref-Lig

>  <s_sd_BIOSOLVEIT.INFINISEE\_QUERY\_SMILES>  (9) 
S(c1nc2c(cc1C[NH2+]Cc3ccc(cc3)C[NH+](C)C)cccc2)Cc4ccccc4

>  <s_sd_BIOSOLVEIT.INFINISEE\_REACTION\_NAME>  (9) 
YAS_R004

>  <s_sd_BIOSOLVEIT.INFINISEE\_REAGENT1\_NAME>  (9) 
OTV1509977

>  <s_sd_BIOSOLVEIT.INFINISEE\_REAGENT1\_SMILES>  (9) 
Oc1ccc(N)cc1

>  <s_sd_BIOSOLVEIT.INFINISEE\_REAGENT2\_NAME>  (9) 
OTV7113231893

>  <s_sd_BIOSOLVEIT.INFINISEE\_REAGENT2\_SMILES>  (9) 
O=C(O)COc1ccccc1

>  <s_sd_BIOSOLVEIT.INFINISEE\_REAGENT3\_NAME>  (9) 
OTV7020431351

>  <s_sd_BIOSOLVEIT.INFINISEE\_REAGENT3\_SMILES>  (9) 
Fc1ccc(cc1)C(N(C)C)CN

>  <s_sd_BIOSOLVEIT.INFINISEE\_SPACE>  (9) 
CHEMriya_12bn_2022-01

>  <s_vsw_compound_code>  (9) 
450

>  <s_vsw_variant>  (9) 
450-1

>  <r_epik_Charging_Adjusted_Penalty>  (9) 
0.22531346519484399

>  <r_epik_Ionization_Penalty>  (9) 
0.1198

>  <r_epik_Ionization_Penalty_Charging>  (9) 
0.1115

>  <r_epik_Ionization_Penalty_Neutral>  (9) 
0.0083999999999999995

>  <r_epik_State_Penalty>  (9) 
0.1139

>  <r_i_docking_score>  (9) 
-5.06327281392812

>  <r_i_glide_ecoul>  (9) 
-16.0771389007568

>  <r_i_glide_eff_state_penalty>  (9) 
0.1139

>  <r_i_glide_einternal>  (9) 
8.7264013290405291

>  <r_i_glide_emodel>  (9) 
-64.854697037685796

>  <r_i_glide_energy>  (9) 
-46.677461624145501

>  <r_i_glide_erotb>  (9) 
0.63556715472457004

>  <r_i_glide_esite>  (9) 
-0.091832139320152203

>  <r_i_glide_evdw>  (9) 
-30.6003227233887

>  <r_i_glide_gscore>  (9) 
-5.1771728139281201

>  <r_i_glide_hbond>  (9) 
-0.15509557057996801

>  <r_i_glide_ligand_efficiency>  (9) 
-0.158227275435254

>  <r_i_glide_ligand_efficiency_ln>  (9) 
-1.1338048026426699

>  <r_i_glide_ligand_efficiency_sa>  (9) 
-0.50234028637164196

>  <r_i_glide_lipo>  (9) 
-0.88856356866712705

>  <r_i_glide_metal>  (9) 
-0

>  <r_i_glide_rewards>  (9) 
-0.73566171880248399

>  <r_lp_Energy>  (9) 
37.708122000000003

>  <r_lp_tautomer_probability>  (9) 
1

>  <r_qp_ACxDN^.5/SA>  (9) 
0.0112257

>  <r_qp_CIQPlogS>  (9) 
-5.9859999999999998

>  <r_qp_EA(eV)>  (9) 
0.86399999999999999

>  <r_qp_FISA>  (9) 
61.512999999999998

>  <r_qp_FOSA>  (9) 
204.78

>  <r_qp_IP(eV)>  (9) 
8.3599999999999994

>  <r_qp_Jm>  (9) 
0.074282318313520598

>  <r_qp_PISA>  (9) 
386.84699999999998

>  <r_qp_PSA>  (9) 
55.545999999999999

>  <r_qp_PercentHumanOralAbsorption>  (9) 
100

>  <r_qp_QPPCaco>  (9) 
644.87400000000002

>  <r_qp_QPPMDCK>  (9) 
562.404

>  <r_qp_QPlogBB>  (9) 
-0.055

>  <r_qp_QPlogHERG>  (9) 
-6.5910000000000002

>  <r_qp_QPlogKhsa>  (9) 
0.75800000000000001

>  <r_qp_QPlogKp>  (9) 
-2.4889999999999999

>  <r_qp_QPlogPC16>  (9) 
13.935

>  <r_qp_QPlogPo/w>  (9) 
4.8769999999999998

>  <r_qp_QPlogPoct>  (9) 
21.318000000000001

>  <r_qp_QPlogPw>  (9) 
10.811999999999999

>  <r_qp_QPlogS>  (9) 
-4.2750000000000004

>  <r_qp_QPpolrz>  (9) 
45.192

>  <r_qp_SASA>  (9) 
692.88999999999999

>  <r_qp_SAamideO>  (9) 
0

>  <r_qp_SAfluorine>  (9) 
39.750999999999998

>  <r_qp_WPSA>  (9) 
39.750999999999998

>  <r_qp_accptHB>  (9) 
5.5

>  <r_qp_dip^2/V>  (9) 
0.026339899999999999

>  <r_qp_dipole>  (9) 
5.9299999999999997

>  <r_qp_donorHB>  (9) 
2

>  <r_qp_glob>  (9) 
0.84626760000000001

>  <r_qp_mol_MW>  (9) 
431.50900000000001

>  <r_qp_volume>  (9) 
1335.0899999999999

>  <r_sd_BIOSOLVEIT.INFINISEE\_FTREES\_SIMILARITY>  (9) 
0.93400000000000005

>  <r_sd_BIOSOLVEIT.LOGP>  (9) 
3.9561999999999999

>  <r_sd_BIOSOLVEIT.MOLECULAR\_WEIGHT>  (9) 
432.51600000000002

>  <r_sd_BIOSOLVEIT.TPSA>  (9) 
58.82

>  <i_epik_Tot_Q>  (9) 
2

>  <i_epik_Tot_abs_Q>  (9) 
2

>  <i_f3d_flags>  (9) 
0

>  <i_i_glide_confnum>  (9) 
2

>  <i_i_glide_lignum>  (9) 
72

>  <i_i_glide_posenum>  (9) 
5

>  <i_i_glide_rotatable_bonds>  (9) 
9

>  <i_lp_mmshare_version>  (9) 
65135

>  <i_m_ct_format>  (9) 
2

>  <i_m_source_file_index>  (9) 
15

>  <i_qp_#NandO>  (9) 
5

>  <i_qp_#acid>  (9) 
0

>  <i_qp_#amide>  (9) 
0

>  <i_qp_#amidine>  (9) 
0

>  <i_qp_#amine>  (9) 
1

>  <i_qp_#in34>  (9) 
0

>  <i_qp_#in56>  (9) 
22

>  <i_qp_#metab>  (9) 
7

>  <i_qp_#nonHatm>  (9) 
32

>  <i_qp_#noncon>  (9) 
0

>  <i_qp_#ringatoms>  (9) 
22

>  <i_qp_#rotor>  (9) 
9

>  <i_qp_#rtvFG>  (9) 
0

>  <i_qp_#stars>  (9) 
0

>  <i_qp_CNS>  (9) 
1

>  <i_qp_HumanOralAbsorption>  (9) 
3

>  <i_qp_RuleOfFive>  (9) 
0

>  <i_qp_RuleOfThree>  (9) 
1

>  <i_sd_BIOSOLVEIT.INFINISEE\_RESULT\_RANK>  (9) 
3203

>  <i_sd_version>  (9) 
0

>  <b_lp_Chiralities_Consistent>  (9) 
1

>  <b_sd_chiral_flag>  (9) 
0

>  <acquisition_id>  (9) 
ATP-ACQ-0009

>  <canonical_id>  (9) 
ATP-HTVS-1402A7ED8177

>  <compound_code>  (9) 
450

>  <title>  (9) 
YAS_R004____OTV1509977____OTV7113231893____OTV7020431351

>  <variant>  (9) 
450-1

>  <selection_arm>  (9) 
score_calibration

>  <priority>  (9) 
P0

>  <wave>  (9) 
1

>  <source_file>  (9) 
运行/运行/ATP-VSW/ATP-VSW-DOCK_HTVS_1-002_lib.maegz

>  <canonical_smiles>  (9) 
C[NH+](C)[C@@H](CNc1cc(COc2ccccc2)[nH+]c2ccc(O)cc12)c1ccc(F)cc1

$$$$
ATP-ACQ-0010
     RDKit          3D

 53 55  0  0  0  0  0  0  0  0999 V2000
  198.4147  185.3984  147.0090 Br  0  0  0  0  0  0  0  0  0  0  0  0
  197.9063  184.1274  148.3282 C   0  0  0  0  0  0  0  0  0  0  0  0
  196.7843  184.3670  149.1511 C   0  0  0  0  0  0  0  0  0  0  0  0
  196.3964  183.4158  150.1121 C   0  0  0  0  0  0  0  0  0  0  0  0
  197.1528  182.2330  150.2814 C   0  0  0  0  0  0  0  0  0  0  0  0
  196.7957  181.2972  151.2115 O   0  0  0  0  0  0  0  0  0  0  0  0
  196.9146  181.5832  152.5511 C   0  0  0  0  0  0  0  0  0  0  0  0
  196.7502  180.5054  153.3510 N   0  0  0  0  0  0  0  0  0  0  0  0
  196.7950  180.6792  154.6864 C   0  0  0  0  0  0  0  0  0  0  0  0
  196.9925  181.9404  155.2808 C   0  0  0  0  0  0  0  0  0  0  0  0
  197.1611  183.0630  154.4521 C   0  0  0  0  0  0  0  0  0  0  0  0
  197.1519  182.8851  153.0644 C   0  0  0  0  0  0  0  0  0  0  0  0
  197.0437  182.1022  156.7755 C   0  0  1  0  0  0  0  0  0  0  0  0
  195.7359  181.8361  157.4119 N   0  0  1  0  0  0  0  0  0  0  0  0
  195.7299  182.0049  158.8813 C   0  0  1  0  0  0  0  0  0  0  0  0
  195.9670  183.4473  159.3055 C   0  0  0  0  0  0  0  0  0  0  0  0
  197.2840  183.9448  159.4211 C   0  0  0  0  0  0  0  0  0  0  0  0
  197.5012  185.2978  159.7328 C   0  0  0  0  0  0  0  0  0  0  0  0
  196.4089  186.1577  159.9870 C   0  0  0  0  0  0  0  0  0  0  0  0
  195.0994  185.6472  159.9180 C   0  0  0  0  0  0  0  0  0  0  0  0
  194.8757  184.3004  159.5659 C   0  0  0  0  0  0  0  0  0  0  0  0
  196.6528  187.6231  160.3255 C   0  0  1  0  0  0  0  0  0  0  0  0
  196.7473  188.4994  159.1267 N   0  0  1  0  0  0  0  0  0  0  0  0
  196.7964  189.9281  159.5083 C   0  0  2  0  0  0  0  0  0  0  0  0
  197.8522  188.1510  158.1966 C   0  0  2  0  0  0  0  0  0  0  0  0
  198.2725  181.9976  149.4575 C   0  0  0  0  0  0  0  0  0  0  0  0
  198.6504  182.9451  148.4887 C   0  0  0  0  0  0  0  0  0  0  0  0
  194.9987  182.3614  156.9605 H   0  0  0  0  0  0  0  0  0  0  0  0
  196.2161  185.2770  149.0282 H   0  0  0  0  0  0  0  0  0  0  0  0
  195.5205  183.5827  150.7204 H   0  0  0  0  0  0  0  0  0  0  0  0
  196.6633  179.8025  155.3069 H   0  0  0  0  0  0  0  0  0  0  0  0
  197.3029  184.0533  154.8626 H   0  0  0  0  0  0  0  0  0  0  0  0
  197.2848  183.7625  152.4526 H   0  0  0  0  0  0  0  0  0  0  0  0
  197.8084  181.4402  157.1854 H   0  0  0  0  0  0  0  0  0  0  0  0
  197.3612  183.1317  156.9508 H   0  0  0  0  0  0  0  0  0  0  0  0
  194.7677  181.6530  159.2595 H   0  0  0  0  0  0  0  0  0  0  0  0
  196.4857  181.3519  159.3244 H   0  0  0  0  0  0  0  0  0  0  0  0
  198.1334  183.3058  159.2358 H   0  0  0  0  0  0  0  0  0  0  0  0
  198.5126  185.6730  159.7814 H   0  0  0  0  0  0  0  0  0  0  0  0
  194.2506  186.2871  160.1042 H   0  0  0  0  0  0  0  0  0  0  0  0
  193.8607  183.9364  159.4747 H   0  0  0  0  0  0  0  0  0  0  0  0
  195.8332  187.9688  160.9575 H   0  0  0  0  0  0  0  0  0  0  0  0
  197.5471  187.7220  160.9314 H   0  0  0  0  0  0  0  0  0  0  0  0
  197.6970  190.1499  160.0854 H   0  0  0  0  0  0  0  0  0  0  0  0
  195.9318  190.1996  160.1172 H   0  0  0  0  0  0  0  0  0  0  0  0
  196.7905  190.5669  158.6233 H   0  0  0  0  0  0  0  0  0  0  0  0
  198.8178  188.2041  158.7018 H   0  0  0  0  0  0  0  0  0  0  0  0
  197.8778  188.8357  157.3460 H   0  0  0  0  0  0  0  0  0  0  0  0
  197.7338  187.1492  157.7846 H   0  0  0  0  0  0  0  0  0  0  0  0
  198.8463  181.0854  149.5741 H   0  0  0  0  0  0  0  0  0  0  0  0
  199.5165  182.7634  147.8663 H   0  0  0  0  0  0  0  0  0  0  0  0
  195.8869  188.3736  158.6140 H   0  0  0  0  0  0  0  0  0  0  0  0
  195.5411  180.8386  157.2879 H   0  0  0  0  0  0  0  0  0  0  0  0
  1  2  1  0
  2  3  1  0
  2 27  2  0
  3  4  2  0
  3 29  1  0
  4  5  1  0
  4 30  1  0
  5  6  1  0
  5 26  2  0
  6  7  1  0
  7  8  1  0
  7 12  2  0
  8  9  2  0
  9 10  1  0
  9 31  1  0
 10 11  2  0
 10 13  1  0
 11 12  1  0
 11 32  1  0
 12 33  1  0
 13 14  1  0
 13 34  1  1
 13 35  1  0
 14 15  1  0
 14 28  1  6
 14 53  1  0
 15 16  1  0
 15 36  1  1
 15 37  1  0
 16 17  1  0
 16 21  2  0
 17 18  2  0
 17 38  1  0
 18 19  1  0
 18 39  1  0
 19 20  2  0
 19 22  1  0
 20 21  1  0
 20 40  1  0
 21 41  1  0
 22 23  1  0
 22 42  1  1
 22 43  1  0
 23 24  1  0
 23 25  1  0
 23 52  1  6
 24 44  1  1
 24 45  1  0
 24 46  1  0
 25 47  1  1
 25 48  1  0
 25 49  1  0
 26 27  1  0
 26 50  1  0
 27 51  1  0
M  CHG  2  14   1  23   1
M  END
>  <s_epik_cmdline>  (10) 
J2VwaWtfcHl0aG9uJywgJy1waCcsICc3LjAwMDAwMCcsICctcGh0JywgJzIuMDAwMDAwJywgJy1tcycsICcxNicsICctdG4nLCAnOCcsICctbWEnLCAnMjAwJywgJy1pbWFlJywgJzxpbmZpbGUubWFlPicsICctb21hZScsICc8b3V0ZmlsZS5tYWU+Jw==

>  <s_epik_input>  (10) 
QnJjMVtjSF1bY0hdYyhbY0hdW2NIXTEpT2MybltjSF1jKFtjSF1bY0hdMilbQ0gyXVtOSF1bQ0gyXWMzW2NIXVtjSF1jKFtjSF1bY0hdMylbQ0gyXU4oW0NIM10pW0NIM10=

>  <s_i_glide_gridfile>  (10) 
ATP-Grid

>  <s_lp_Force_Field>  (10) 
OPLS_2005

>  <s_lp_Variant>  (10) 
m_270004bbb____8288884____20640242-1

>  <s_lp_label>  (10) 
1197_sdstereoexpander_1_neutralizer_1_epik_1_stereoizer_1

>  <s_m_source_file>  (10) 
ATP-VSW-LIGPREP-002-in.maegz

>  <s_sd_BIOSOLVEIT.INFINISEE\_QUERY\_NAME>  (10) 
Ref-Lig

>  <s_sd_BIOSOLVEIT.INFINISEE\_QUERY\_SMILES>  (10) 
S(c1nc2c(cc1C[NH2+]Cc3ccc(cc3)C[NH+](C)C)cccc2)Cc4ccccc4

>  <s_sd_BIOSOLVEIT.INFINISEE\_REACTION\_NAME>  (10) 
m_270004bbb

>  <s_sd_BIOSOLVEIT.INFINISEE\_REAGENT1\_SMILES>  (10) 
[R1*]NCc1ccc(cc1)CN(C)C

>  <s_sd_BIOSOLVEIT.INFINISEE\_REAGENT2\_SMILES>  (10) 
[R1*]Cc1cnc(Oc2ccc(Br)cc2)cc1

>  <s_sd_BIOSOLVEIT.INFINISEE\_SPACE>  (10) 
REALSpace_44bn_2023-08

>  <s_vsw_compound_code>  (10) 
38274

>  <s_vsw_variant>  (10) 
38274-1

>  <r_epik_Charging_Adjusted_Penalty>  (10) 
0.42394423779197299

>  <r_epik_Ionization_Penalty>  (10) 
0.20999999999999999

>  <r_epik_Ionization_Penalty_Charging>  (10) 
0.20999999999999999

>  <r_epik_Ionization_Penalty_Neutral>  (10) 
0

>  <r_epik_State_Penalty>  (10) 
0.214

>  <r_i_docking_score>  (10) 
-6.27229934947262

>  <r_i_glide_ecoul>  (10) 
-12.959820747375501

>  <r_i_glide_eff_state_penalty>  (10) 
0.214

>  <r_i_glide_einternal>  (10) 
2.0179190635681201

>  <r_i_glide_emodel>  (10) 
-79.270718719398204

>  <r_i_glide_energy>  (10) 
-48.894360542297399

>  <r_i_glide_erotb>  (10) 
0.75773174054959602

>  <r_i_glide_esite>  (10) 
-0.10000000000000001

>  <r_i_glide_evdw>  (10) 
-35.934539794921903

>  <r_i_glide_gscore>  (10) 
-6.4862993494726204

>  <r_i_glide_hbond>  (10) 
-0.40000000000000002

>  <r_i_glide_ligand_efficiency>  (10) 
-0.23230738331380099

>  <r_i_glide_ligand_efficiency_ln>  (10) 
-1.4600878816207601

>  <r_i_glide_ligand_efficiency_sa>  (10) 
-0.69692214917575501

>  <r_i_glide_lipo>  (10) 
-2.28991285180616

>  <r_i_glide_metal>  (10) 
-0

>  <r_i_glide_rewards>  (10) 
-0.71341813636363605

>  <r_lp_Energy>  (10) 
17.776261000000002

>  <r_lp_tautomer_probability>  (10) 
1

>  <r_qp_ACxDN^.5/SA>  (10) 
0.0066769000000000004

>  <r_qp_CIQPlogS>  (10) 
-4.8730000000000002

>  <r_qp_EA(eV)>  (10) 
0.435

>  <r_qp_FISA>  (10) 
37.649000000000001

>  <r_qp_FOSA>  (10) 
250.80000000000001

>  <r_qp_IP(eV)>  (10) 
9.0690000000000008

>  <r_qp_Jm>  (10) 
0.00057121106428761903

>  <r_qp_PISA>  (10) 
383.01299999999998

>  <r_qp_PSA>  (10) 
39.448

>  <r_qp_PercentHumanOralAbsorption>  (10) 
100

>  <r_qp_QPPCaco>  (10) 
270.81400000000002

>  <r_qp_QPPMDCK>  (10) 
391.596

>  <r_qp_QPlogBB>  (10) 
0.64500000000000002

>  <r_qp_QPlogHERG>  (10) 
-8.532

>  <r_qp_QPlogKhsa>  (10) 
0.82499999999999996

>  <r_qp_QPlogKp>  (10) 
-4.2210000000000001

>  <r_qp_QPlogPC16>  (10) 
14.208

>  <r_qp_QPlogPo/w>  (10) 
4.7800000000000002

>  <r_qp_QPlogPoct>  (10) 
18.809000000000001

>  <r_qp_QPlogPw>  (10) 
9.0350000000000001

>  <r_qp_QPlogS>  (10) 
-4.6520000000000001

>  <r_qp_QPpolrz>  (10) 
44.472999999999999

>  <r_qp_SASA>  (10) 
748.85199999999998

>  <r_qp_SAamideO>  (10) 
0

>  <r_qp_SAfluorine>  (10) 
0

>  <r_qp_WPSA>  (10) 
77.390000000000001

>  <r_qp_accptHB>  (10) 
5

>  <r_qp_dip^2/V>  (10) 
0.0059160000000000003

>  <r_qp_dipole>  (10) 
2.7749999999999999

>  <r_qp_donorHB>  (10) 
1

>  <r_qp_glob>  (10) 
0.77003739999999998

>  <r_qp_mol_MW>  (10) 
426.35500000000002

>  <r_qp_volume>  (10) 
1302.01

>  <r_sd_BIOSOLVEIT.INFINISEE\_FTREES\_SIMILARITY>  (10) 
0.91100000000000003

>  <r_sd_BIOSOLVEIT.LOGP>  (10) 
2.5445000000000002

>  <r_sd_BIOSOLVEIT.MOLECULAR\_WEIGHT>  (10) 
428.37099999999998

>  <r_sd_BIOSOLVEIT.TPSA>  (10) 
43.170000000000002

>  <i_epik_Tot_Q>  (10) 
2

>  <i_epik_Tot_abs_Q>  (10) 
2

>  <i_f3d_flags>  (10) 
0

>  <i_i_glide_confnum>  (10) 
1

>  <i_i_glide_lignum>  (10) 
413

>  <i_i_glide_posenum>  (10) 
9

>  <i_i_glide_rotatable_bonds>  (10) 
8

>  <i_lp_mmshare_version>  (10) 
65135

>  <i_m_ct_format>  (10) 
2

>  <i_m_source_file_index>  (10) 
1197

>  <i_qp_#NandO>  (10) 
4

>  <i_qp_#acid>  (10) 
0

>  <i_qp_#amide>  (10) 
0

>  <i_qp_#amidine>  (10) 
0

>  <i_qp_#amine>  (10) 
2

>  <i_qp_#in34>  (10) 
0

>  <i_qp_#in56>  (10) 
18

>  <i_qp_#metab>  (10) 
6

>  <i_qp_#nonHatm>  (10) 
27

>  <i_qp_#noncon>  (10) 
0

>  <i_qp_#ringatoms>  (10) 
18

>  <i_qp_#rotor>  (10) 
8

>  <i_qp_#rtvFG>  (10) 
0

>  <i_qp_#stars>  (10) 
0

>  <i_qp_CNS>  (10) 
2

>  <i_qp_HumanOralAbsorption>  (10) 
3

>  <i_qp_RuleOfFive>  (10) 
0

>  <i_qp_RuleOfThree>  (10) 
0

>  <i_sd_BIOSOLVEIT.INFINISEE\_REAGENT1\_NAME>  (10) 
8288884

>  <i_sd_BIOSOLVEIT.INFINISEE\_REAGENT2\_NAME>  (10) 
20640242

>  <i_sd_BIOSOLVEIT.INFINISEE\_RESULT\_RANK>  (10) 
39995

>  <i_sd_version>  (10) 
0

>  <b_lp_Chiralities_Consistent>  (10) 
1

>  <b_sd_chiral_flag>  (10) 
0

>  <acquisition_id>  (10) 
ATP-ACQ-0010

>  <canonical_id>  (10) 
ATP-HTVS-6EF9F712D3BB

>  <compound_code>  (10) 
38274

>  <title>  (10) 
m_270004bbb____8288884____20640242

>  <variant>  (10) 
38274-1

>  <selection_arm>  (10) 
exploitation

>  <priority>  (10) 
P0

>  <wave>  (10) 
1

>  <source_file>  (10) 
运行/运行/ATP-VSW/ATP-VSW-DOCK_HTVS_1-002_lib.maegz

>  <canonical_smiles>  (10) 
C[NH+](C)Cc1ccc(C[NH2+]Cc2ccc(Oc3ccc(Br)cc3)nc2)cc1

$$$$
ATP-ACQ-0011
     RDKit          3D

 67 70  0  0  0  0  0  0  0  0999 V2000
  200.9481  177.1597  154.8156 O   0  0  0  0  0  0  0  0  0  0  0  0
  200.4111  177.2934  153.7160 C   0  0  0  0  0  0  0  0  0  0  0  0
  199.5438  178.2739  153.3994 N   0  0  0  0  0  0  0  0  0  0  0  0
  198.9696  179.2728  154.2309 C   0  0  0  0  0  0  0  0  0  0  0  0
  199.1832  179.2935  155.5643 N   0  0  0  0  0  0  0  0  0  0  0  0
  198.6084  180.2412  156.3212 C   0  0  0  0  0  0  0  0  0  0  0  0
  197.7987  181.2731  155.8042 C   0  0  0  0  0  0  0  0  0  0  0  0
  197.2652  182.2836  156.6265 N   0  0  0  0  0  0  0  0  0  0  0  0
  197.4287  182.2378  158.0688 C   0  0  1  0  0  0  0  0  0  0  0  0
  196.7332  183.3871  158.7594 C   0  0  0  0  0  0  0  0  0  0  0  0
  195.3568  183.2985  159.0396 C   0  0  0  0  0  0  0  0  0  0  0  0
  194.6948  184.3646  159.6745 C   0  0  0  0  0  0  0  0  0  0  0  0
  195.4011  185.5394  160.0302 C   0  0  0  0  0  0  0  0  0  0  0  0
  194.7930  186.6394  160.6555 N   0  0  0  0  0  0  0  0  0  0  0  0
  193.3771  186.6897  161.0030 C   0  0  1  0  0  0  0  0  0  0  0  0
  193.1994  186.7897  162.5164 C   0  0  1  0  0  0  0  0  0  0  0  0
  191.8434  187.0265  162.8167 O   0  0  0  0  0  0  0  0  0  0  0  0
  196.7808  185.6222  159.7351 C   0  0  0  0  0  0  0  0  0  0  0  0
  197.4471  184.5501  159.1053 C   0  0  0  0  0  0  0  0  0  0  0  0
  197.5546  181.2559  154.4069 C   0  0  0  0  0  0  0  0  0  0  0  0
  198.1427  180.2401  153.6052 C   0  0  0  0  0  0  0  0  0  0  0  0
  197.9010  180.2305  152.2034 C   0  0  0  0  0  0  0  0  0  0  0  0
  197.0945  181.2160  151.6119 C   0  0  0  0  0  0  0  0  0  0  0  0
  196.5220  182.2209  152.4065 C   0  0  0  0  0  0  0  0  0  0  0  0
  196.7493  182.2404  153.7942 C   0  0  0  0  0  0  0  0  0  0  0  0
  200.6811  176.3134  152.6012 C   0  0  0  0  0  0  0  0  0  0  0  0
  201.1632  174.9884  152.8395 C   0  0  0  0  0  0  0  0  0  0  0  0
  201.4176  174.1455  151.7331 C   0  0  0  0  0  0  0  0  0  0  0  0
  201.1951  174.5766  150.4122 C   0  0  0  0  0  0  0  0  0  0  0  0
  200.7114  175.8691  150.1776 C   0  0  0  0  0  0  0  0  0  0  0  0
  200.4664  176.7298  151.2603 C   0  0  0  0  0  0  0  0  0  0  0  0
  201.4436  174.3953  154.2242 C   0  0  1  0  0  0  0  0  0  0  0  0
  202.8981  174.3583  154.5302 N   0  0  1  0  0  0  0  0  0  0  0  0
  203.5245  175.6917  154.6947 C   0  0  2  0  0  0  0  0  0  0  0  0
  203.1985  173.4812  155.6783 C   0  0  2  0  0  0  0  0  0  0  0  0
  199.2156  178.2890  152.4522 H   0  0  0  0  0  0  0  0  0  0  0  0
  198.8467  180.1640  157.3704 H   0  0  0  0  0  0  0  0  0  0  0  0
  196.6136  182.9590  156.2469 H   0  0  0  0  0  0  0  0  0  0  0  0
  197.0394  181.2987  158.4704 H   0  0  0  0  0  0  0  0  0  0  0  0
  198.4926  182.2846  158.3020 H   0  0  0  0  0  0  0  0  0  0  0  0
  194.8029  182.4132  158.7623 H   0  0  0  0  0  0  0  0  0  0  0  0
  193.6386  184.2520  159.8618 H   0  0  0  0  0  0  0  0  0  0  0  0
  195.3194  187.4980  160.7135 H   0  0  0  0  0  0  0  0  0  0  0  0
  192.9279  187.5613  160.5355 H   0  0  0  0  0  0  0  0  0  0  0  0
  192.8062  185.8361  160.6261 H   0  0  0  0  0  0  0  0  0  0  0  0
  193.5041  185.8389  162.9640 H   0  0  0  0  0  0  0  0  0  0  0  0
  193.8076  187.5995  162.9391 H   0  0  0  0  0  0  0  0  0  0  0  0
  191.5582  187.7862  162.3354 H   0  0  0  0  0  0  0  0  0  0  0  0
  197.3465  186.5090  159.9870 H   0  0  0  0  0  0  0  0  0  0  0  0
  198.5048  184.6227  158.8853 H   0  0  0  0  0  0  0  0  0  0  0  0
  198.3312  179.4861  151.5526 H   0  0  0  0  0  0  0  0  0  0  0  0
  196.9212  181.2028  150.5447 H   0  0  0  0  0  0  0  0  0  0  0  0
  195.8976  182.9823  151.9673 H   0  0  0  0  0  0  0  0  0  0  0  0
  196.2907  183.0203  154.3777 H   0  0  0  0  0  0  0  0  0  0  0  0
  201.7855  173.1432  151.8796 H   0  0  0  0  0  0  0  0  0  0  0  0
  201.3757  173.9168  149.5773 H   0  0  0  0  0  0  0  0  0  0  0  0
  200.5274  176.2069  149.1682 H   0  0  0  0  0  0  0  0  0  0  0  0
  200.1123  177.7186  151.0115 H   0  0  0  0  0  0  0  0  0  0  0  0
  200.8929  174.9034  155.0345 H   0  0  0  0  0  0  0  0  0  0  0  0
  201.0666  173.3708  154.2059 H   0  0  0  0  0  0  0  0  0  0  0  0
  203.1051  176.2217  155.5504 H   0  0  0  0  0  0  0  0  0  0  0  0
  203.3961  176.3107  153.8069 H   0  0  0  0  0  0  0  0  0  0  0  0
  204.5987  175.6122  154.8715 H   0  0  0  0  0  0  0  0  0  0  0  0
  202.7470  173.8773  156.5881 H   0  0  0  0  0  0  0  0  0  0  0  0
  204.2744  173.4304  155.8414 H   0  0  0  0  0  0  0  0  0  0  0  0
  202.8271  172.4684  155.5124 H   0  0  0  0  0  0  0  0  0  0  0  0
  203.3476  173.9310  153.7294 H   0  0  0  0  0  0  0  0  0  0  0  0
  1  2  2  0
  2  3  1  0
  2 26  1  0
  3  4  1  0
  3 36  1  0
  4  5  1  0
  4 21  2  0
  5  6  2  0
  6  7  1  0
  6 37  1  0
  7  8  1  0
  7 20  2  0
  8  9  1  0
  8 38  1  0
  9 10  1  0
  9 39  1  1
  9 40  1  0
 10 11  1  0
 10 19  2  0
 11 12  2  0
 11 41  1  0
 12 13  1  0
 12 42  1  0
 13 14  1  0
 13 18  2  0
 14 15  1  0
 14 43  1  0
 15 16  1  0
 15 44  1  6
 15 45  1  0
 16 17  1  0
 16 46  1  1
 16 47  1  0
 17 48  1  0
 18 19  1  0
 18 49  1  0
 19 50  1  0
 20 21  1  0
 20 25  1  0
 21 22  1  0
 22 23  2  0
 22 51  1  0
 23 24  1  0
 23 52  1  0
 24 25  2  0
 24 53  1  0
 25 54  1  0
 26 27  1  0
 26 31  2  0
 27 28  2  0
 27 32  1  0
 28 29  1  0
 28 55  1  0
 29 30  2  0
 29 56  1  0
 30 31  1  0
 30 57  1  0
 31 58  1  0
 32 33  1  0
 32 59  1  1
 32 60  1  0
 33 34  1  0
 33 35  1  0
 33 67  1  6
 34 61  1  1
 34 62  1  0
 34 63  1  0
 35 64  1  1
 35 65  1  0
 35 66  1  0
M  CHG  1  33   1
M  END
>  <s_epik_cmdline>  (11) 
J2VwaWtfcHl0aG9uJywgJy1waCcsICc3LjAwMDAwMCcsICctcGh0JywgJzIuMDAwMDAwJywgJy1tcycsICcxNicsICctdG4nLCAnOCcsICctbWEnLCAnMjAwJywgJy1pbWFlJywgJzxpbmZpbGUubWFlPicsICctb21hZScsICc8b3V0ZmlsZS5tYWU+Jw==

>  <s_epik_input>  (11) 
W2NIXTFbY0hdW2NIXVtjSF1jKFtDSDJdTihbQ0gzXSlbQ0gzXSljMUMoPU8pW05IXWMoYyhjMjMpW2NIXVtjSF1bY0hdW2NIXTMpbltjSF1jMltOSF1bQ0gyXWM0W2NIXVtjSF1jKFtjSF1bY0hdNClbTkhdW0NIMl1bQ0gyXVtPSF0=

>  <s_i_glide_gridfile>  (11) 
ATP-Grid

>  <s_lp_Force_Field>  (11) 
OPLS_2005

>  <s_lp_Variant>  (11) 
rxn502b____EMOL5415347____EMOL7515103____EMOL324170366-1

>  <s_lp_label>  (11) 
2985_sdstereoexpander_1_neutralizer_1_epik_1_stereoizer_1

>  <s_m_source_file>  (11) 
ATP-VSW-LIGPREP-001-in.maegz

>  <s_sd_BIOSOLVEIT.INFINISEE\_QUERY\_NAME>  (11) 
Ref-Lig

>  <s_sd_BIOSOLVEIT.INFINISEE\_QUERY\_SMILES>  (11) 
S(c1nc2c(cc1C[NH2+]Cc3ccc(cc3)C[NH+](C)C)cccc2)Cc4ccccc4

>  <s_sd_BIOSOLVEIT.INFINISEE\_REACTION\_NAME>  (11) 
rxn502b

>  <s_sd_BIOSOLVEIT.INFINISEE\_REAGENT1\_NAME>  (11) 
EMOL5415347

>  <s_sd_BIOSOLVEIT.INFINISEE\_REAGENT1\_SMILES>  (11) 
O=C(O)c1c(cccc1)CN(C)C

>  <s_sd_BIOSOLVEIT.INFINISEE\_REAGENT2\_NAME>  (11) 
EMOL7515103

>  <s_sd_BIOSOLVEIT.INFINISEE\_REAGENT2\_SMILES>  (11) 
Brc1c2c(c(nc1)N)cccc2

>  <s_sd_BIOSOLVEIT.INFINISEE\_REAGENT3\_NAME>  (11) 
EMOL324170366

>  <s_sd_BIOSOLVEIT.INFINISEE\_REAGENT3\_SMILES>  (11) 
OCCNc1ccc(cc1)CN

>  <s_sd_BIOSOLVEIT.INFINISEE\_SPACE>  (11) 
eXplore_7tr_2022-12

>  <s_vsw_compound_code>  (11) 
95489

>  <s_vsw_variant>  (11) 
95489-1

>  <r_epik_Charging_Adjusted_Penalty>  (11) 
0.131810615872997

>  <r_epik_Ionization_Penalty>  (11) 
0.071900000000000006

>  <r_epik_Ionization_Penalty_Charging>  (11) 
0.060100000000000001

>  <r_epik_Ionization_Penalty_Neutral>  (11) 
0.011900000000000001

>  <r_epik_State_Penalty>  (11) 
0.071800000000000003

>  <r_i_docking_score>  (11) 
-3.4960790733530702

>  <r_i_glide_ecoul>  (11) 
-2.45831370353699

>  <r_i_glide_eff_state_penalty>  (11) 
0.071800000000000003

>  <r_i_glide_einternal>  (11) 
2.0977005958557098

>  <r_i_glide_emodel>  (11) 
-56.025991213318697

>  <r_i_glide_energy>  (11) 
-44.466320753097499

>  <r_i_glide_erotb>  (11) 
0.91244354638238701

>  <r_i_glide_esite>  (11) 
-0.042776031286026597

>  <r_i_glide_evdw>  (11) 
-42.008007049560497

>  <r_i_glide_gscore>  (11) 
-3.5678790733530699

>  <r_i_glide_hbond>  (11) 
0

>  <r_i_glide_ligand_efficiency>  (11) 
-0.099887973524373494

>  <r_i_glide_ligand_efficiency_ln>  (11) 
-0.76746694789552505

>  <r_i_glide_ligand_efficiency_sa>  (11) 
-0.326740184601363

>  <r_i_glide_lipo>  (11) 
-1.7309167911660499

>  <r_i_glide_metal>  (11) 
-0

>  <r_i_glide_rewards>  (11) 
-0.237482389274805

>  <r_lp_Energy>  (11) 
35.608077000000002

>  <r_qp_ACxDN^.5/SA>  (11) 
0.021111100000000001

>  <r_qp_CIQPlogS>  (11) 
-5.1859999999999999

>  <r_qp_EA(eV)>  (11) 
0.71199999999999997

>  <r_qp_FISA>  (11) 
108.416

>  <r_qp_FOSA>  (11) 
289.351

>  <r_qp_IP(eV)>  (11) 
7.4989999999999997

>  <r_qp_Jm>  (11) 
0.0025506702418958702

>  <r_qp_PISA>  (11) 
473.81

>  <r_qp_PSA>  (11) 
91.409000000000006

>  <r_qp_PercentHumanOralAbsorption>  (11) 
92.727999999999994

>  <r_qp_QPPCaco>  (11) 
231.57300000000001

>  <r_qp_QPPMDCK>  (11) 
112.599

>  <r_qp_QPlogBB>  (11) 
-0.998

>  <r_qp_QPlogHERG>  (11) 
-8.6219999999999999

>  <r_qp_QPlogKhsa>  (11) 
0.39500000000000002

>  <r_qp_QPlogKp>  (11) 
-2.855

>  <r_qp_QPlogPC16>  (11) 
18.125

>  <r_qp_QPlogPo/w>  (11) 
4.0069999999999997

>  <r_qp_QPlogPoct>  (11) 
29.175999999999998

>  <r_qp_QPlogPw>  (11) 
18.271000000000001

>  <r_qp_QPlogS>  (11) 
-5.4100000000000001

>  <r_qp_QPpolrz>  (11) 
53.738999999999997

>  <r_qp_SASA>  (11) 
871.57799999999997

>  <r_qp_SAamideO>  (11) 
0

>  <r_qp_SAfluorine>  (11) 
0

>  <r_qp_WPSA>  (11) 
0

>  <r_qp_accptHB>  (11) 
9.1999999999999993

>  <r_qp_dip^2/V>  (11) 
0.044734700000000002

>  <r_qp_dipole>  (11) 
8.3539999999999992

>  <r_qp_donorHB>  (11) 
4

>  <r_qp_glob>  (11) 
0.74635200000000002

>  <r_qp_mol_MW>  (11) 
469.58499999999998

>  <r_qp_volume>  (11) 
1560.009

>  <r_sd_BIOSOLVEIT.INFINISEE\_FTREES\_SIMILARITY>  (11) 
0.90300000000000002

>  <r_sd_BIOSOLVEIT.LOGP>  (11) 
3.1478999999999999

>  <r_sd_BIOSOLVEIT.MOLECULAR\_WEIGHT>  (11) 
470.59399999999999

>  <r_sd_BIOSOLVEIT.TPSA>  (11) 
90.719999999999999

>  <i_epik_Tot_Q>  (11) 
1

>  <i_epik_Tot_abs_Q>  (11) 
1

>  <i_f3d_flags>  (11) 
0

>  <i_i_glide_confnum>  (11) 
3

>  <i_i_glide_lignum>  (11) 
1419

>  <i_i_glide_posenum>  (11) 
18

>  <i_i_glide_rotatable_bonds>  (11) 
12

>  <i_lp_mmshare_version>  (11) 
65135

>  <i_m_ct_format>  (11) 
2

>  <i_m_source_file_index>  (11) 
2985

>  <i_qp_#NandO>  (11) 
7

>  <i_qp_#acid>  (11) 
0

>  <i_qp_#amide>  (11) 
0

>  <i_qp_#amidine>  (11) 
0

>  <i_qp_#amine>  (11) 
1

>  <i_qp_#in34>  (11) 
0

>  <i_qp_#in56>  (11) 
22

>  <i_qp_#metab>  (11) 
10

>  <i_qp_#nonHatm>  (11) 
35

>  <i_qp_#noncon>  (11) 
0

>  <i_qp_#ringatoms>  (11) 
22

>  <i_qp_#rotor>  (11) 
11

>  <i_qp_#rtvFG>  (11) 
0

>  <i_qp_#stars>  (11) 
5

>  <i_qp_CNS>  (11) 
-1

>  <i_qp_HumanOralAbsorption>  (11) 
1

>  <i_qp_RuleOfFive>  (11) 
0

>  <i_qp_RuleOfThree>  (11) 
1

>  <i_sd_BIOSOLVEIT.INFINISEE\_RESULT\_RANK>  (11) 
84160

>  <i_sd_version>  (11) 
0

>  <b_lp_Chiralities_Consistent>  (11) 
1

>  <b_sd_chiral_flag>  (11) 
0

>  <acquisition_id>  (11) 
ATP-ACQ-0011

>  <canonical_id>  (11) 
ATP-HTVS-1952D56C5A08

>  <compound_code>  (11) 
95489

>  <title>  (11) 
rxn502b____EMOL5415347____EMOL7515103____EMOL324170366

>  <variant>  (11) 
95489-1

>  <selection_arm>  (11) 
descriptor_diversity

>  <priority>  (11) 
P0

>  <wave>  (11) 
1

>  <source_file>  (11) 
运行/运行/ATP-VSW/ATP-VSW-DOCK_HTVS_1-001_lib/ATP-VSW-DOCK_HTVS_1-001_lib

>  <canonical_smiles>  (11) 
C[NH+](C)Cc1ccccc1C(=O)Nc1ncc(NCc2ccc(NCCO)cc2)c2ccccc12

$$$$
ATP-ACQ-0012
     RDKit          3D

 52 55  0  0  0  0  0  0  0  0999 V2000
  200.1017  187.5419  153.3974 F   0  0  0  0  0  0  0  0  0  0  0  0
  199.2579  187.4605  154.4570 C   0  0  0  0  0  0  0  0  0  0  0  0
  198.3693  186.3629  154.6184 C   0  0  0  0  0  0  0  0  0  0  0  0
  197.5015  186.3582  155.7403 C   0  0  0  0  0  0  0  0  0  0  0  0
  197.5117  187.4168  156.6646 C   0  0  0  0  0  0  0  0  0  0  0  0
  196.6052  187.4410  157.6642 F   0  0  0  0  0  0  0  0  0  0  0  0
  198.4275  188.4696  156.5251 C   0  0  0  0  0  0  0  0  0  0  0  0
  199.2916  188.4960  155.4164 C   0  0  0  0  0  0  0  0  0  0  0  0
  198.3073  185.2608  153.5838 C   0  0  0  0  0  0  0  0  0  0  0  0
  198.7233  185.4405  152.4345 O   0  0  0  0  0  0  0  0  0  0  0  0
  197.7660  184.1123  154.0308 N   0  0  0  0  0  0  0  0  0  0  0  0
  197.6576  182.8470  153.3904 C   0  0  0  0  0  0  0  0  0  0  0  0
  198.1766  182.6158  152.1647 N   0  0  0  0  0  0  0  0  0  0  0  0
  198.0860  181.3977  151.5957 C   0  0  0  0  0  0  0  0  0  0  0  0
  197.4343  180.3213  152.2500 C   0  0  0  0  0  0  0  0  0  0  0  0
  196.8819  180.5394  153.5237 C   0  0  0  0  0  0  0  0  0  0  0  0
  197.0027  181.8104  154.1154 C   0  0  0  0  0  0  0  0  0  0  0  0
  196.4578  182.0001  155.4578 C   0  0  0  0  0  0  0  0  0  0  0  0
  195.9934  182.1779  156.5745 C   0  0  0  0  0  0  0  0  0  0  0  0
  195.4175  182.4432  157.9090 C   0  0  1  0  0  0  0  0  0  0  0  0
  194.3553  181.4339  158.0880 N   0  0  2  0  0  0  0  0  0  0  0  0
  196.4644  182.3643  159.0341 C   0  0  1  0  0  0  0  0  0  0  0  0
  197.4287  183.5405  159.0529 C   0  0  0  0  0  0  0  0  0  0  0  0
  198.7343  183.4097  158.5327 C   0  0  0  0  0  0  0  0  0  0  0  0
  199.6282  184.4949  158.5818 C   0  0  0  0  0  0  0  0  0  0  0  0
  200.8784  184.3653  158.0812 F   0  0  0  0  0  0  0  0  0  0  0  0
  199.2172  185.7177  159.1383 C   0  0  0  0  0  0  0  0  0  0  0  0
  197.9135  185.8510  159.6554 C   0  0  0  0  0  0  0  0  0  0  0  0
  197.0163  184.7676  159.6063 C   0  0  0  0  0  0  0  0  0  0  0  0
  197.3466  179.0570  151.6347 C   0  0  0  0  0  0  0  0  0  0  0  0
  197.9102  178.8543  150.3605 C   0  0  0  0  0  0  0  0  0  0  0  0
  198.5638  179.9143  149.7056 C   0  0  0  0  0  0  0  0  0  0  0  0
  198.6493  181.1750  150.3259 C   0  0  0  0  0  0  0  0  0  0  0  0
  193.7138  181.5648  157.3092 H   0  0  0  0  0  0  0  0  0  0  0  0
  193.8888  181.5684  158.9740 H   0  0  0  0  0  0  0  0  0  0  0  0
  196.7896  185.5690  155.9176 H   0  0  0  0  0  0  0  0  0  0  0  0
  198.4427  189.2720  157.2492 H   0  0  0  0  0  0  0  0  0  0  0  0
  199.9707  189.3287  155.2813 H   0  0  0  0  0  0  0  0  0  0  0  0
  197.4058  184.1307  154.9684 H   0  0  0  0  0  0  0  0  0  0  0  0
  196.3904  179.7351  154.0545 H   0  0  0  0  0  0  0  0  0  0  0  0
  194.9373  183.4250  157.8916 H   0  0  0  0  0  0  0  0  0  0  0  0
  195.9600  182.3352  159.9977 H   0  0  0  0  0  0  0  0  0  0  0  0
  197.0178  181.4296  158.9394 H   0  0  0  0  0  0  0  0  0  0  0  0
  199.0642  182.4745  158.1104 H   0  0  0  0  0  0  0  0  0  0  0  0
  199.8901  186.5632  159.1474 H   0  0  0  0  0  0  0  0  0  0  0  0
  197.5947  186.7955  160.0713 H   0  0  0  0  0  0  0  0  0  0  0  0
  196.0123  184.8917  159.9865 H   0  0  0  0  0  0  0  0  0  0  0  0
  196.8497  178.2372  152.1342 H   0  0  0  0  0  0  0  0  0  0  0  0
  197.8501  177.8849  149.8868 H   0  0  0  0  0  0  0  0  0  0  0  0
  199.0011  179.7611  148.7287 H   0  0  0  0  0  0  0  0  0  0  0  0
  199.1561  181.9886  149.8271 H   0  0  0  0  0  0  0  0  0  0  0  0
  194.7497  180.4879  158.0591 H   0  0  0  0  0  0  0  0  0  0  0  0
  1  2  1  0
  2  3  2  0
  2  8  1  0
  3  4  1  0
  3  9  1  0
  4  5  2  0
  4 36  1  0
  5  6  1  0
  5  7  1  0
  7  8  2  0
  7 37  1  0
  8 38  1  0
  9 10  2  0
  9 11  1  0
 11 12  1  0
 11 39  1  0
 12 13  2  0
 12 17  1  0
 13 14  1  0
 14 15  1  0
 14 33  2  0
 15 16  1  0
 15 30  2  0
 16 17  2  0
 16 40  1  0
 17 18  1  0
 18 19  3  0
 19 20  1  0
 20 21  1  0
 20 22  1  0
 20 41  1  6
 21 34  1  6
 21 35  1  0
 21 52  1  0
 22 23  1  0
 22 42  1  1
 22 43  1  0
 23 24  1  0
 23 29  2  0
 24 25  2  0
 24 44  1  0
 25 26  1  0
 25 27  1  0
 27 28  2  0
 27 45  1  0
 28 29  1  0
 28 46  1  0
 29 47  1  0
 30 31  1  0
 30 48  1  0
 31 32  2  0
 31 49  1  0
 32 33  1  0
 32 50  1  0
 33 51  1  0
M  CHG  1  21   1
M  END
>  <s_epik_cmdline>  (12) 
J2VwaWtfcHl0aG9uJywgJy1waCcsICc3LjAwMDAwMCcsICctcGh0JywgJzIuMDAwMDAwJywgJy1tcycsICcxNicsICctdG4nLCAnOCcsICctbWEnLCAnMjAwJywgJy1pbWFlJywgJzxpbmZpbGUubWFlPicsICctb21hZScsICc8b3V0ZmlsZS5tYWU+Jw==

>  <s_epik_input>  (12) 
W2NIXTFbY0hdYyhGKVtjSF1jKGMxRilDKD1PKVtOSF1jKG4yKWMoW2NIXWMoYzIzKVtjSF1bY0hdW2NIXVtjSF0zKUMjQ1tDQEBIXShbTkgyXSlbQ0gyXWM0W2NIXWMoRilbY0hdW2NIXVtjSF00

>  <s_i_glide_gridfile>  (12) 
ATP-Grid

>  <s_lp_Force_Field>  (12) 
OPLS_2005

>  <s_lp_Variant>  (12) 
rxn503b____EMOL491633____EMOL44466703____EMOL313110234-4

>  <s_lp_label>  (12) 
2772_sdstereoexpander_2_neutralizer_1_epik_2_stereoizer_1

>  <s_m_source_file>  (12) 
ATP-VSW-LIGPREP-001-in.maegz

>  <s_sd_BIOSOLVEIT.INFINISEE\_QUERY\_NAME>  (12) 
Ref-Lig

>  <s_sd_BIOSOLVEIT.INFINISEE\_QUERY\_SMILES>  (12) 
S(c1nc2c(cc1C[NH2+]Cc3ccc(cc3)C[NH+](C)C)cccc2)Cc4ccccc4

>  <s_sd_BIOSOLVEIT.INFINISEE\_REACTION\_NAME>  (12) 
rxn503b

>  <s_sd_BIOSOLVEIT.INFINISEE\_REAGENT1\_NAME>  (12) 
EMOL491633

>  <s_sd_BIOSOLVEIT.INFINISEE\_REAGENT1\_SMILES>  (12) 
Fc1c(cc(F)cc1)C(=O)O

>  <s_sd_BIOSOLVEIT.INFINISEE\_REAGENT2\_NAME>  (12) 
EMOL44466703

>  <s_sd_BIOSOLVEIT.INFINISEE\_REAGENT2\_SMILES>  (12) 
Brc1c(nc2c(c1)cccc2)N

>  <s_sd_BIOSOLVEIT.INFINISEE\_REAGENT3\_NAME>  (12) 
EMOL313110234

>  <s_sd_BIOSOLVEIT.INFINISEE\_REAGENT3\_SMILES>  (12) 
Fc1cc(ccc1)CC(N)C#C

>  <s_sd_BIOSOLVEIT.INFINISEE\_SPACE>  (12) 
eXplore_7tr_2022-12

>  <s_vsw_compound_code>  (12) 
88673

>  <s_vsw_variant>  (12) 
88673-4

>  <r_epik_Charging_Adjusted_Penalty>  (12) 
1.22591159016581

>  <r_epik_Ionization_Penalty>  (12) 
0.61309999999999998

>  <r_epik_Ionization_Penalty_Charging>  (12) 
0.61299999999999999

>  <r_epik_Ionization_Penalty_Neutral>  (12) 
0.00020000000000000001

>  <r_epik_State_Penalty>  (12) 
0.61299999999999999

>  <r_i_docking_score>  (12) 
-5.0640072206641804

>  <r_i_glide_ecoul>  (12) 
-11.581933021545399

>  <r_i_glide_eff_state_penalty>  (12) 
0.61299999999999999

>  <r_i_glide_einternal>  (12) 
2.85350894927979

>  <r_i_glide_emodel>  (12) 
-62.904257658117302

>  <r_i_glide_energy>  (12) 
-41.869652748107903

>  <r_i_glide_erotb>  (12) 
0.42179665442063402

>  <r_i_glide_esite>  (12) 
-0.112034949509704

>  <r_i_glide_evdw>  (12) 
-30.2877197265625

>  <r_i_glide_gscore>  (12) 
-5.67700722066418

>  <r_i_glide_hbond>  (12) 
-0.31277344649369199

>  <r_i_glide_ligand_efficiency>  (12) 
-0.153454764262551

>  <r_i_glide_ligand_efficiency_ln>  (12) 
-1.1262089858495901

>  <r_i_glide_ligand_efficiency_sa>  (12) 
-0.49221142389987499

>  <r_i_glide_lipo>  (12) 
-1.14354886960313

>  <r_i_glide_metal>  (12) 
-0

>  <r_i_glide_rewards>  (12) 
-1.2787706699183601

>  <r_lp_Energy>  (12) 
23.446842

>  <r_qp_ACxDN^.5/SA>  (12) 
0.0110017

>  <r_qp_CIQPlogS>  (12) 
-6.5270000000000001

>  <r_qp_EA(eV)>  (12) 
1.0389999999999999

>  <r_qp_FISA>  (12) 
112.253

>  <r_qp_FOSA>  (12) 
51.597999999999999

>  <r_qp_IP(eV)>  (12) 
8.734

>  <r_qp_Jm>  (12) 
0.0011087719050808999

>  <r_qp_PISA>  (12) 
453.06

>  <r_qp_PSA>  (12) 
70.689999999999998

>  <r_qp_PercentHumanOralAbsorption>  (12) 
96.613

>  <r_qp_QPPCaco>  (12) 
212.965

>  <r_qp_QPPMDCK>  (12) 
326.35500000000002

>  <r_qp_QPlogBB>  (12) 
-0.36099999999999999

>  <r_qp_QPlogHERG>  (12) 
-7.4100000000000001

>  <r_qp_QPlogKhsa>  (12) 
0.82799999999999996

>  <r_qp_QPlogKp>  (12) 
-3.383

>  <r_qp_QPlogPC16>  (12) 
14.422000000000001

>  <r_qp_QPlogPo/w>  (12) 
4.7809999999999997

>  <r_qp_QPlogPoct>  (12) 
23.469999999999999

>  <r_qp_QPlogPw>  (12) 
12.584

>  <r_qp_QPlogS>  (12) 
-5.2210000000000001

>  <r_qp_QPpolrz>  (12) 
45.902000000000001

>  <r_qp_SASA>  (12) 
708.45500000000004

>  <r_qp_SAamideO>  (12) 
0

>  <r_qp_SAfluorine>  (12) 
91.543999999999997

>  <r_qp_WPSA>  (12) 
91.543999999999997

>  <r_qp_accptHB>  (12) 
4.5

>  <r_qp_dip^2/V>  (12) 
0.059005299999999997

>  <r_qp_dipole>  (12) 
8.7750000000000004

>  <r_qp_donorHB>  (12) 
3

>  <r_qp_glob>  (12) 
0.81516670000000002

>  <r_qp_mol_MW>  (12) 
445.44299999999998

>  <r_qp_volume>  (12) 
1304.9400000000001

>  <r_sd_BIOSOLVEIT.INFINISEE\_FTREES\_SIMILARITY>  (12) 
0.90700000000000003

>  <r_sd_BIOSOLVEIT.LOGP>  (12) 
4.1090999999999998

>  <r_sd_BIOSOLVEIT.MOLECULAR\_WEIGHT>  (12) 
446.44999999999999

>  <r_sd_BIOSOLVEIT.TPSA>  (12) 
69.629999999999995

>  <i_epik_Tot_Q>  (12) 
1

>  <i_epik_Tot_abs_Q>  (12) 
1

>  <i_f3d_flags>  (12) 
0

>  <i_i_glide_confnum>  (12) 
4

>  <i_i_glide_lignum>  (12) 
1254

>  <i_i_glide_posenum>  (12) 
5

>  <i_i_glide_rotatable_bonds>  (12) 
7

>  <i_lp_mmshare_version>  (12) 
65135

>  <i_m_ct_format>  (12) 
2

>  <i_m_source_file_index>  (12) 
2772

>  <i_qp_#NandO>  (12) 
4

>  <i_qp_#acid>  (12) 
0

>  <i_qp_#amide>  (12) 
0

>  <i_qp_#amidine>  (12) 
0

>  <i_qp_#amine>  (12) 
1

>  <i_qp_#in34>  (12) 
0

>  <i_qp_#in56>  (12) 
22

>  <i_qp_#metab>  (12) 
4

>  <i_qp_#nonHatm>  (12) 
33

>  <i_qp_#noncon>  (12) 
0

>  <i_qp_#ringatoms>  (12) 
22

>  <i_qp_#rotor>  (12) 
7

>  <i_qp_#rtvFG>  (12) 
0

>  <i_qp_#stars>  (12) 
1

>  <i_qp_CNS>  (12) 
0

>  <i_qp_HumanOralAbsorption>  (12) 
3

>  <i_qp_RuleOfFive>  (12) 
0

>  <i_qp_RuleOfThree>  (12) 
0

>  <i_sd_BIOSOLVEIT.INFINISEE\_RESULT\_RANK>  (12) 
60497

>  <i_sd_version>  (12) 
0

>  <b_lp_Chiralities_Consistent>  (12) 
1

>  <b_sd_chiral_flag>  (12) 
0

>  <acquisition_id>  (12) 
ATP-ACQ-0012

>  <canonical_id>  (12) 
ATP-HTVS-AD7D334F30DB

>  <compound_code>  (12) 
88673

>  <title>  (12) 
rxn503b____EMOL491633____EMOL44466703____EMOL313110234

>  <variant>  (12) 
88673-4

>  <selection_arm>  (12) 
score_calibration

>  <priority>  (12) 
P0

>  <wave>  (12) 
1

>  <source_file>  (12) 
运行/运行/ATP-VSW/ATP-VSW-DOCK_HTVS_1-001_lib/ATP-VSW-DOCK_HTVS_1-001_lib

>  <canonical_smiles>  (12) 
[NH3+][C@H](C#Cc1cc2ccccc2nc1NC(=O)c1cc(F)ccc1F)Cc1cccc(F)c1

$$$$
ATP-ACQ-0013
     RDKit          3D

 53 55  0  0  0  0  0  0  0  0999 V2000
  196.9722  184.6371  147.7184 O   0  0  0  0  0  0  0  0  0  0  0  0
  197.1791  183.9841  148.8966 C   0  0  0  0  0  0  0  0  0  0  0  0
  196.3472  184.2447  149.9979 C   0  0  0  0  0  0  0  0  0  0  0  0
  196.5465  183.5750  151.2165 C   0  0  0  0  0  0  0  0  0  0  0  0
  197.5821  182.6210  151.3556 C   0  0  0  0  0  0  0  0  0  0  0  0
  197.7838  181.9274  152.6413 C   0  0  0  0  0  0  0  0  0  0  0  0
  199.0539  181.5231  152.8660 N   0  0  0  0  0  0  0  0  0  0  0  0
  199.3542  180.8998  154.0338 C   0  0  0  0  0  0  0  0  0  0  0  0
  198.3666  180.5963  155.0073 C   0  0  0  0  0  0  0  0  0  0  0  0
  197.0478  181.0353  154.7877 C   0  0  0  0  0  0  0  0  0  0  0  0
  196.7523  181.7237  153.5913 C   0  0  0  0  0  0  0  0  0  0  0  0
  198.7307  179.8369  156.2733 C   0  0  1  0  0  0  0  0  0  0  0  0
  199.1492  178.4462  156.0048 N   0  0  1  0  0  0  0  0  0  0  0  0
  200.5649  178.3280  155.5739 C   0  0  1  0  0  0  0  0  0  0  0  0
  200.8931  176.9024  155.2047 C   0  0  0  0  0  0  0  0  0  0  0  0
  200.6316  176.4401  153.8977 C   0  0  0  0  0  0  0  0  0  0  0  0
  200.9614  175.1196  153.5335 C   0  0  0  0  0  0  0  0  0  0  0  0
  201.5372  174.2551  154.4895 C   0  0  0  0  0  0  0  0  0  0  0  0
  201.7820  174.7343  155.7933 C   0  0  0  0  0  0  0  0  0  0  0  0
  201.4743  176.0564  156.1550 C   0  0  0  0  0  0  0  0  0  0  0  0
  201.9095  172.8226  154.1253 C   0  0  1  0  0  0  0  0  0  0  0  0
  203.3605  172.6403  153.8517 N   0  0  2  0  0  0  0  0  0  0  0  0
  204.2494  173.1253  154.9301 C   0  0  2  0  0  0  0  0  0  0  0  0
  203.7657  173.1650  152.5304 C   0  0  2  0  0  0  0  0  0  0  0  0
  198.4194  182.3778  150.2414 C   0  0  0  0  0  0  0  0  0  0  0  0
  198.2250  183.0498  149.0197 C   0  0  0  0  0  0  0  0  0  0  0  0
  198.9531  177.9072  156.8377 H   0  0  0  0  0  0  0  0  0  0  0  0
  196.2069  185.1914  147.7208 H   0  0  0  0  0  0  0  0  0  0  0  0
  195.5453  184.9615  149.9152 H   0  0  0  0  0  0  0  0  0  0  0  0
  195.9107  183.8086  152.0576 H   0  0  0  0  0  0  0  0  0  0  0  0
  200.3850  180.6264  154.1737 H   0  0  0  0  0  0  0  0  0  0  0  0
  196.2661  180.8799  155.5197 H   0  0  0  0  0  0  0  0  0  0  0  0
  195.7530  182.1048  153.4228 H   0  0  0  0  0  0  0  0  0  0  0  0
  199.4953  180.3692  156.8369 H   0  0  0  0  0  0  0  0  0  0  0  0
  197.8588  179.8096  156.9226 H   0  0  0  0  0  0  0  0  0  0  0  0
  200.7934  178.9163  154.6686 H   0  0  0  0  0  0  0  0  0  0  0  0
  201.2337  178.6698  156.3779 H   0  0  0  0  0  0  0  0  0  0  0  0
  200.1925  177.0912  153.1599 H   0  0  0  0  0  0  0  0  0  0  0  0
  200.7613  174.7692  152.5289 H   0  0  0  0  0  0  0  0  0  0  0  0
  202.2561  174.1000  156.5185 H   0  0  0  0  0  0  0  0  0  0  0  0
  201.7307  176.4270  157.1417 H   0  0  0  0  0  0  0  0  0  0  0  0
  201.6082  172.1637  154.9362 H   0  0  0  0  0  0  0  0  0  0  0  0
  201.3242  172.5046  153.2563 H   0  0  0  0  0  0  0  0  0  0  0  0
  204.2094  174.2076  155.0360 H   0  0  0  0  0  0  0  0  0  0  0  0
  205.3001  172.8838  154.7234 H   0  0  0  0  0  0  0  0  0  0  0  0
  203.9456  172.6620  155.8689 H   0  0  0  0  0  0  0  0  0  0  0  0
  203.5933  174.2423  152.4650 H   0  0  0  0  0  0  0  0  0  0  0  0
  203.2060  172.6825  151.7295 H   0  0  0  0  0  0  0  0  0  0  0  0
  204.8263  172.9885  152.3563 H   0  0  0  0  0  0  0  0  0  0  0  0
  199.2295  181.6617  150.3089 H   0  0  0  0  0  0  0  0  0  0  0  0
  198.8689  182.8422  148.1775 H   0  0  0  0  0  0  0  0  0  0  0  0
  203.4885  171.6169  153.8580 H   0  0  0  0  0  0  0  0  0  0  0  0
  198.5512  178.0695  155.2863 H   0  0  0  0  0  0  0  0  0  0  0  0
  1  2  1  0
  1 28  1  0
  2  3  1  0
  2 26  2  0
  3  4  2  0
  3 29  1  0
  4  5  1  0
  4 30  1  0
  5  6  1  0
  5 25  2  0
  6  7  1  0
  6 11  2  0
  7  8  2  0
  8  9  1  0
  8 31  1  0
  9 10  2  0
  9 12  1  0
 10 11  1  0
 10 32  1  0
 11 33  1  0
 12 13  1  0
 12 34  1  1
 12 35  1  0
 13 14  1  0
 13 27  1  1
 13 53  1  0
 14 15  1  0
 14 36  1  6
 14 37  1  0
 15 16  1  0
 15 20  2  0
 16 17  2  0
 16 38  1  0
 17 18  1  0
 17 39  1  0
 18 19  2  0
 18 21  1  0
 19 20  1  0
 19 40  1  0
 20 41  1  0
 21 22  1  0
 21 42  1  1
 21 43  1  0
 22 23  1  0
 22 24  1  0
 22 52  1  6
 23 44  1  1
 23 45  1  0
 23 46  1  0
 24 47  1  1
 24 48  1  0
 24 49  1  0
 25 26  1  0
 25 50  1  0
 26 51  1  0
M  CHG  2  13   1  22   1
M  END
>  <s_epik_cmdline>  (13) 
J2VwaWtfcHl0aG9uJywgJy1waCcsICc3LjAwMDAwMCcsICctcGh0JywgJzIuMDAwMDAwJywgJy1tcycsICcxNicsICctdG4nLCAnOCcsICctbWEnLCAnMjAwJywgJy1pbWFlJywgJzxpbmZpbGUubWFlPicsICctb21hZScsICc8b3V0ZmlsZS5tYWU+Jw==

>  <s_epik_input>  (13) 
W09IXWMxW2NIXVtjSF1jKFtjSF1bY0hdMSktYzJuW2NIXWMoW2NIXVtjSF0yKVtDSDJdW05IXVtDSDJdYzNbY0hdW2NIXWMoW2NIXVtjSF0zKVtDSDJdTihbQ0gzXSlbQ0gzXQ==

>  <s_i_glide_gridfile>  (13) 
ATP-Grid

>  <s_lp_Force_Field>  (13) 
OPLS_2005

>  <s_lp_Variant>  (13) 
WXDL_15E____QS5063____LN00244457____BT0555-1

>  <s_lp_label>  (13) 
627_sdstereoexpander_1_neutralizer_1_epik_1_stereoizer_1

>  <s_m_source_file>  (13) 
ATP-VSW-LIGPREP-002-in.maegz

>  <s_sd_BIOSOLVEIT.INFINISEE\_QUERY\_NAME>  (13) 
Ref-Lig

>  <s_sd_BIOSOLVEIT.INFINISEE\_QUERY\_SMILES>  (13) 
S(c1nc2c(cc1C[NH2+]Cc3ccc(cc3)C[NH+](C)C)cccc2)Cc4ccccc4

>  <s_sd_BIOSOLVEIT.INFINISEE\_REACTION\_NAME>  (13) 
WXDL_15E

>  <s_sd_BIOSOLVEIT.INFINISEE\_REAGENT1\_NAME>  (13) 
QS5063

>  <s_sd_BIOSOLVEIT.INFINISEE\_REAGENT1\_SMILES>  (13) 
O=Cc1ccc(cc1)CN(C)C

>  <s_sd_BIOSOLVEIT.INFINISEE\_REAGENT2\_NAME>  (13) 
LN00244457

>  <s_sd_BIOSOLVEIT.INFINISEE\_REAGENT2\_SMILES>  (13) 
Brc1ncc(cc1)CNC(=O)OC(C)(C)C

>  <s_sd_BIOSOLVEIT.INFINISEE\_REAGENT3\_NAME>  (13) 
BT0555

>  <s_sd_BIOSOLVEIT.INFINISEE\_REAGENT3\_SMILES>  (13) 
Oc1ccc(cc1)B(O)O

>  <s_sd_BIOSOLVEIT.INFINISEE\_SPACE>  (13) 
GalaXi_12bn_2023-03

>  <s_vsw_compound_code>  (13) 
20034

>  <s_vsw_variant>  (13) 
20034-1

>  <r_epik_Charging_Adjusted_Penalty>  (13) 
0.36260264626329503

>  <r_epik_Ionization_Penalty>  (13) 
0.18129999999999999

>  <r_epik_Ionization_Penalty_Charging>  (13) 
0.1799

>  <r_epik_Ionization_Penalty_Neutral>  (13) 
0.0014

>  <r_epik_State_Penalty>  (13) 
0.1827

>  <r_i_docking_score>  (13) 
-6.6614367029427797

>  <r_i_glide_ecoul>  (13) 
-20.883989334106399

>  <r_i_glide_eff_state_penalty>  (13) 
0.1827

>  <r_i_glide_einternal>  (13) 
3.3178658485412602

>  <r_i_glide_emodel>  (13) 
-75.011169116128798

>  <r_i_glide_energy>  (13) 
-45.189605712890597

>  <r_i_glide_erotb>  (13) 
0.93585446189056398

>  <r_i_glide_esite>  (13) 
-0.20000000000000001

>  <r_i_glide_evdw>  (13) 
-24.305616378784201

>  <r_i_glide_gscore>  (13) 
-6.8441367029427802

>  <r_i_glide_hbond>  (13) 
-0.62646890064982197

>  <r_i_glide_ligand_efficiency>  (13) 
-0.25620910395933799

>  <r_i_glide_ligand_efficiency_ln>  (13) 
-1.5644165517294699

>  <r_i_glide_ligand_efficiency_sa>  (13) 
-0.75901846234539405

>  <r_i_glide_lipo>  (13) 
-1.3542972269465201

>  <r_i_glide_metal>  (13) 
-0

>  <r_i_glide_rewards>  (13) 
-1.25134581818182

>  <r_lp_Energy>  (13) 
17.966108999999999

>  <r_lp_tautomer_probability>  (13) 
0.999999999997365

>  <r_qp_ACxDN^.5/SA>  (13) 
0.0102638

>  <r_qp_CIQPlogS>  (13) 
-3.1120000000000001

>  <r_qp_EA(eV)>  (13) 
0.45400000000000001

>  <r_qp_FISA>  (13) 
80.313000000000002

>  <r_qp_FOSA>  (13) 
250.41

>  <r_qp_IP(eV)>  (13) 
8.7789999999999999

>  <r_qp_Jm>  (13) 
0.00081218796813291002

>  <r_qp_PISA>  (13) 
392.654

>  <r_qp_PSA>  (13) 
52.308999999999997

>  <r_qp_PercentHumanOralAbsorption>  (13) 
84.254999999999995

>  <r_qp_QPPCaco>  (13) 
106.68300000000001

>  <r_qp_QPPMDCK>  (13) 
53.901000000000003

>  <r_qp_QPlogBB>  (13) 
-0.012999999999999999

>  <r_qp_QPlogHERG>  (13) 
-8.4960000000000004

>  <r_qp_QPlogKhsa>  (13) 
0.57399999999999995

>  <r_qp_QPlogKp>  (13) 
-4.9740000000000002

>  <r_qp_QPlogPC16>  (13) 
13.712999999999999

>  <r_qp_QPlogPo/w>  (13) 
3.5880000000000001

>  <r_qp_QPlogPoct>  (13) 
19.489000000000001

>  <r_qp_QPlogPw>  (13) 
11.013

>  <r_qp_QPlogS>  (13) 
-3.6579999999999999

>  <r_qp_QPpolrz>  (13) 
42.420000000000002

>  <r_qp_SASA>  (13) 
723.37699999999995

>  <r_qp_SAamideO>  (13) 
0

>  <r_qp_SAfluorine>  (13) 
0

>  <r_qp_WPSA>  (13) 
0

>  <r_qp_accptHB>  (13) 
5.25

>  <r_qp_dip^2/V>  (13) 
0.0027087999999999999

>  <r_qp_dipole>  (13) 
1.839

>  <r_qp_donorHB>  (13) 
2

>  <r_qp_glob>  (13) 
0.77512389999999998

>  <r_qp_mol_MW>  (13) 
347.459

>  <r_qp_volume>  (13) 
1248.4069999999999

>  <r_sd_BIOSOLVEIT.INFINISEE\_FTREES\_SIMILARITY>  (13) 
0.91700000000000004

>  <r_sd_BIOSOLVEIT.LOGP>  (13) 
1.3623000000000001

>  <r_sd_BIOSOLVEIT.MOLECULAR\_WEIGHT>  (13) 
349.47500000000002

>  <r_sd_BIOSOLVEIT.TPSA>  (13) 
54.170000000000002

>  <i_epik_Tot_Q>  (13) 
2

>  <i_epik_Tot_abs_Q>  (13) 
2

>  <i_f3d_flags>  (13) 
0

>  <i_i_glide_confnum>  (13) 
7

>  <i_i_glide_lignum>  (13) 
174

>  <i_i_glide_posenum>  (13) 
19

>  <i_i_glide_rotatable_bonds>  (13) 
8

>  <i_lp_mmshare_version>  (13) 
65135

>  <i_m_ct_format>  (13) 
2

>  <i_m_source_file_index>  (13) 
627

>  <i_qp_#NandO>  (13) 
4

>  <i_qp_#acid>  (13) 
0

>  <i_qp_#amide>  (13) 
0

>  <i_qp_#amidine>  (13) 
0

>  <i_qp_#amine>  (13) 
2

>  <i_qp_#in34>  (13) 
0

>  <i_qp_#in56>  (13) 
18

>  <i_qp_#metab>  (13) 
7

>  <i_qp_#nonHatm>  (13) 
26

>  <i_qp_#noncon>  (13) 
0

>  <i_qp_#ringatoms>  (13) 
18

>  <i_qp_#rotor>  (13) 
8

>  <i_qp_#rtvFG>  (13) 
0

>  <i_qp_#stars>  (13) 
0

>  <i_qp_CNS>  (13) 
1

>  <i_qp_HumanOralAbsorption>  (13) 
2

>  <i_qp_RuleOfFive>  (13) 
0

>  <i_qp_RuleOfThree>  (13) 
1

>  <i_sd_BIOSOLVEIT.INFINISEE\_RESULT\_RANK>  (13) 
24092

>  <i_sd_version>  (13) 
0

>  <b_lp_Chiralities_Consistent>  (13) 
1

>  <b_sd_chiral_flag>  (13) 
0

>  <acquisition_id>  (13) 
ATP-ACQ-0013

>  <canonical_id>  (13) 
ATP-HTVS-CEDCE5F1BEB7

>  <compound_code>  (13) 
20034

>  <title>  (13) 
WXDL_15E____QS5063____LN00244457____BT0555

>  <variant>  (13) 
20034-1

>  <selection_arm>  (13) 
exploitation

>  <priority>  (13) 
P0

>  <wave>  (13) 
1

>  <source_file>  (13) 
运行/运行/ATP-VSW/ATP-VSW-DOCK_HTVS_1-002_lib.maegz

>  <canonical_smiles>  (13) 
C[NH+](C)Cc1ccc(C[NH2+]Cc2ccc(-c3ccc(O)cc3)nc2)cc1

$$$$
ATP-ACQ-0014
     RDKit          3D

 64 67  0  0  0  0  0  0  0  0999 V2000
  197.7618  185.8370  157.1582 S   0  0  0  0  0  0  0  0  0  0  0  0
  196.7030  184.6822  157.9645 C   0  0  0  0  0  0  0  0  0  0  0  0
  196.7007  183.4396  157.2638 C   0  0  0  0  0  0  0  0  0  0  0  0
  195.9085  182.4046  157.8322 C   0  0  0  0  0  0  0  0  0  0  0  0
  195.1300  182.6001  158.9810 C   0  0  0  0  0  0  0  0  0  0  0  0
  195.1321  183.8439  159.6397 C   0  0  0  0  0  0  0  0  0  0  0  0
  195.9425  184.8881  159.1309 C   0  0  0  0  0  0  0  0  0  0  0  0
  197.5480  183.4663  156.0833 C   0  0  0  0  0  0  0  0  0  0  0  0
  197.6799  182.3637  155.2381 N   0  0  0  0  0  0  0  0  0  0  0  0
  196.6021  181.4737  154.8464 C   0  0  1  0  0  0  0  0  0  0  0  0
  196.7291  181.1485  153.3810 C   0  0  0  0  0  0  0  0  0  0  0  0
  196.6186  182.1868  152.4378 C   0  0  0  0  0  0  0  0  0  0  0  0
  196.7137  181.9136  151.0605 C   0  0  0  0  0  0  0  0  0  0  0  0
  196.9115  180.5852  150.6298 C   0  0  0  0  0  0  0  0  0  0  0  0
  197.0374  179.5427  151.5704 C   0  0  0  0  0  0  0  0  0  0  0  0
  196.9528  179.8281  152.9474 C   0  0  0  0  0  0  0  0  0  0  0  0
  196.5883  183.0415  150.0512 C   0  0  1  0  0  0  0  0  0  0  0  0
  197.4709  184.1794  150.2974 N   0  0  0  0  0  0  0  0  0  0  0  0
  197.2150  185.2058  149.2951 C   0  0  2  0  0  0  0  0  0  0  0  0
  198.8705  183.7761  150.2098 C   0  0  2  0  0  0  0  0  0  0  0  0
  198.2380  184.6596  155.9606 C   0  0  0  0  0  0  0  0  0  0  0  0
  199.2673  185.1595  155.0030 C   0  0  0  0  0  0  0  0  0  0  0  0
  199.1458  186.3099  154.5888 O   0  0  0  0  0  0  0  0  0  0  0  0
  200.3267  184.3865  154.6378 N   0  0  0  0  0  0  0  0  0  0  0  0
  200.5299  183.0308  155.0504 C   0  0  0  0  0  0  0  0  0  0  0  0
  200.4641  182.6522  156.4019 C   0  0  0  0  0  0  0  0  0  0  0  0
  200.5723  181.2899  156.7560 C   0  0  0  0  0  0  0  0  0  0  0  0
  200.7989  180.3015  155.7742 C   0  0  0  0  0  0  0  0  0  0  0  0
  200.9091  180.6923  154.4224 C   0  0  0  0  0  0  0  0  0  0  0  0
  200.7851  182.0462  154.0637 C   0  0  0  0  0  0  0  0  0  0  0  0
  200.8842  178.8546  156.1308 C   0  0  0  0  0  0  0  0  0  0  0  0
  201.0977  177.9625  155.3047 O   0  0  0  0  0  0  0  0  0  0  0  0
  200.7302  178.6323  157.4473 O   0  0  0  0  0  0  0  0  0  0  0  0
  200.7767  177.3094  157.9459 C   0  0  2  0  0  0  0  0  0  0  0  0
  201.2922  184.9512  153.6848 C   0  0  2  0  0  0  0  0  0  0  0  0
  195.9013  181.4195  157.3866 H   0  0  0  0  0  0  0  0  0  0  0  0
  194.5187  181.7795  159.3418 H   0  0  0  0  0  0  0  0  0  0  0  0
  194.5080  184.0021  160.5035 H   0  0  0  0  0  0  0  0  0  0  0  0
  195.9641  185.8480  159.6348 H   0  0  0  0  0  0  0  0  0  0  0  0
  198.6114  182.0942  154.9718 H   0  0  0  0  0  0  0  0  0  0  0  0
  196.6503  180.5569  155.4390 H   0  0  0  0  0  0  0  0  0  0  0  0
  195.6237  181.9255  155.0163 H   0  0  0  0  0  0  0  0  0  0  0  0
  196.4590  183.1991  152.7839 H   0  0  0  0  0  0  0  0  0  0  0  0
  196.9781  180.3605  149.5732 H   0  0  0  0  0  0  0  0  0  0  0  0
  197.2043  178.5289  151.2414 H   0  0  0  0  0  0  0  0  0  0  0  0
  197.0603  179.0379  153.6729 H   0  0  0  0  0  0  0  0  0  0  0  0
  196.7576  182.6473  149.0467 H   0  0  0  0  0  0  0  0  0  0  0  0
  195.5555  183.3917  150.0915 H   0  0  0  0  0  0  0  0  0  0  0  0
  197.8492  186.0754  149.4716 H   0  0  0  0  0  0  0  0  0  0  0  0
  196.1779  185.5367  149.3309 H   0  0  0  0  0  0  0  0  0  0  0  0
  197.4111  184.8387  148.2860 H   0  0  0  0  0  0  0  0  0  0  0  0
  199.5259  184.6310  150.3774 H   0  0  0  0  0  0  0  0  0  0  0  0
  199.1020  183.3483  149.2332 H   0  0  0  0  0  0  0  0  0  0  0  0
  199.1113  183.0325  150.9713 H   0  0  0  0  0  0  0  0  0  0  0  0
  200.3308  183.3829  157.1942 H   0  0  0  0  0  0  0  0  0  0  0  0
  200.4046  181.0193  157.7826 H   0  0  0  0  0  0  0  0  0  0  0  0
  201.0217  179.9542  153.6431 H   0  0  0  0  0  0  0  0  0  0  0  0
  200.7886  182.3117  153.0178 H   0  0  0  0  0  0  0  0  0  0  0  0
  200.6497  177.3131  159.0289 H   0  0  0  0  0  0  0  0  0  0  0  0
  201.7349  176.8427  157.7121 H   0  0  0  0  0  0  0  0  0  0  0  0
  199.9767  176.7118  157.5067 H   0  0  0  0  0  0  0  0  0  0  0  0
  202.1552  184.3012  153.5470 H   0  0  0  0  0  0  0  0  0  0  0  0
  201.6834  185.9029  154.0577 H   0  0  0  0  0  0  0  0  0  0  0  0
  200.8406  185.1208  152.7031 H   0  0  0  0  0  0  0  0  0  0  0  0
  1  2  1  0
  1 21  1  0
  2  3  1  0
  2  7  2  0
  3  4  2  0
  3  8  1  0
  4  5  1  0
  4 36  1  0
  5  6  2  0
  5 37  1  0
  6  7  1  0
  6 38  1  0
  7 39  1  0
  8  9  1  0
  8 21  2  0
  9 10  1  0
  9 40  1  0
 10 11  1  0
 10 41  1  1
 10 42  1  0
 11 12  2  0
 11 16  1  0
 12 13  1  0
 12 43  1  0
 13 14  2  0
 13 17  1  0
 14 15  1  0
 14 44  1  0
 15 16  2  0
 15 45  1  0
 16 46  1  0
 17 18  1  0
 17 47  1  6
 17 48  1  0
 18 19  1  0
 18 20  1  0
 19 49  1  1
 19 50  1  0
 19 51  1  0
 20 52  1  1
 20 53  1  0
 20 54  1  0
 21 22  1  0
 22 23  2  0
 22 24  1  0
 24 25  1  0
 24 35  1  0
 25 26  1  0
 25 30  2  0
 26 27  2  0
 26 55  1  0
 27 28  1  0
 27 56  1  0
 28 29  2  0
 28 31  1  0
 29 30  1  0
 29 57  1  0
 30 58  1  0
 31 32  2  0
 31 33  1  0
 33 34  1  0
 34 59  1  1
 34 60  1  0
 34 61  1  0
 35 62  1  6
 35 63  1  0
 35 64  1  0
M  END
>  <s_epik_Chemistry_Notes>  (14) 
This compound has an ester and may undergo hydrolysis at high or low pH.

>  <s_epik_cmdline>  (14) 
J2VwaWtfcHl0aG9uJywgJy1waCcsICc3LjAwMDAwMCcsICctcGh0JywgJzIuMDAwMDAwJywgJy1tcycsICcxNicsICctdG4nLCAnOCcsICctbWEnLCAnMjAwJywgJy1pbWFlJywgJzxpbmZpbGUubWFlPicsICctb21hZScsICc8b3V0ZmlsZS5tYWU+Jw==

>  <s_epik_input>  (14) 
W0NIM11PQyg9TyljKFtjSF1bY0hdMSlbY0hdW2NIXWMxTihbQ0gzXSlDKD1PKWMoczIpYyhjKGMyMylbY0hdW2NIXVtjSF1bY0hdMylbTkhdW0NIMl1jNFtjSF1jKFtjSF1bY0hdW2NIXTQpW0NIMl1OKFtDSDNdKVtDSDNd

>  <s_i_glide_gridfile>  (14) 
ATP-Grid

>  <s_lp_Force_Field>  (14) 
OPLS_2005

>  <s_lp_Variant>  (14) 
rxn512c____EMOL884318____EMOL523944____EMOL2873214-2

>  <s_lp_label>  (14) 
2238_sdstereoexpander_1_neutralizer_1_epik_2_stereoizer_1

>  <s_m_source_file>  (14) 
ATP-VSW-LIGPREP-001-in.maegz

>  <s_sd_BIOSOLVEIT.INFINISEE\_QUERY\_NAME>  (14) 
Ref-Lig

>  <s_sd_BIOSOLVEIT.INFINISEE\_QUERY\_SMILES>  (14) 
S(c1nc2c(cc1C[NH2+]Cc3ccc(cc3)C[NH+](C)C)cccc2)Cc4ccccc4

>  <s_sd_BIOSOLVEIT.INFINISEE\_REACTION\_NAME>  (14) 
rxn512c

>  <s_sd_BIOSOLVEIT.INFINISEE\_REAGENT1\_NAME>  (14) 
EMOL884318

>  <s_sd_BIOSOLVEIT.INFINISEE\_REAGENT1\_SMILES>  (14) 
O=C(OC)c1ccc(NC)cc1

>  <s_sd_BIOSOLVEIT.INFINISEE\_REAGENT2\_NAME>  (14) 
EMOL523944

>  <s_sd_BIOSOLVEIT.INFINISEE\_REAGENT2\_SMILES>  (14) 
ClC=1c2c(SC1C(=O)O)cccc2

>  <s_sd_BIOSOLVEIT.INFINISEE\_REAGENT3\_NAME>  (14) 
EMOL2873214

>  <s_sd_BIOSOLVEIT.INFINISEE\_REAGENT3\_SMILES>  (14) 
N(Cc1cc(ccc1)CN)(C)C

>  <s_sd_BIOSOLVEIT.INFINISEE\_SPACE>  (14) 
eXplore_7tr_2022-12

>  <s_vsw_compound_code>  (14) 
71585

>  <s_vsw_variant>  (14) 
71585-2

>  <r_epik_Charging_Adjusted_Penalty>  (14) 
1.5746020351915

>  <r_epik_Ionization_Penalty>  (14) 
1.5746

>  <r_epik_Ionization_Penalty_Charging>  (14) 
0

>  <r_epik_Ionization_Penalty_Neutral>  (14) 
1.5746

>  <r_epik_State_Penalty>  (14) 
1.5746

>  <r_i_docking_score>  (14) 
-1.0755973152635701

>  <r_i_glide_ecoul>  (14) 
0.32468026876449602

>  <r_i_glide_eff_state_penalty>  (14) 
1.5746

>  <r_i_glide_einternal>  (14) 
6.4640007019043004

>  <r_i_glide_emodel>  (14) 
-41.6711770656472

>  <r_i_glide_energy>  (14) 
-38.338012754917102

>  <r_i_glide_erotb>  (14) 
0.68404946877456196

>  <r_i_glide_esite>  (14) 
-0.020672534051090999

>  <r_i_glide_evdw>  (14) 
-38.662693023681598

>  <r_i_glide_gscore>  (14) 
-2.6501973152635698

>  <r_i_glide_hbond>  (14) 
0

>  <r_i_glide_ligand_efficiency>  (14) 
-0.030731351864673399

>  <r_i_glide_ligand_efficiency_ln>  (14) 
-0.23611748229659801

>  <r_i_glide_ligand_efficiency_sa>  (14) 
-0.10052428963195099

>  <r_i_glide_lipo>  (14) 
-1.34469273002672

>  <r_i_glide_metal>  (14) 
-0

>  <r_i_glide_rewards>  (14) 
-0.084448909090908894

>  <r_lp_Energy>  (14) 
51.408917000000002

>  <r_qp_ACxDN^.5/SA>  (14) 
0

>  <r_qp_CIQPlogS>  (14) 
-5.3440000000000003

>  <r_qp_EA(eV)>  (14) 
0.68000000000000005

>  <r_qp_FISA>  (14) 
93.137

>  <r_qp_FOSA>  (14) 
359.26499999999999

>  <r_qp_IP(eV)>  (14) 
7.9409999999999998

>  <r_qp_Jm>  (14) 
1.5337826060819299e-05

>  <r_qp_PISA>  (14) 
379.28800000000001

>  <r_qp_PSA>  (14) 
77.197000000000003

>  <r_qp_PercentHumanOralAbsorption>  (14) 
90.099999999999994

>  <r_qp_QPPCaco>  (14) 
80.626999999999995

>  <r_qp_QPPMDCK>  (14) 
57.356000000000002

>  <r_qp_QPlogBB>  (14) 
-0.13200000000000001

>  <r_qp_QPlogHERG>  (14) 
-8.7119999999999997

>  <r_qp_QPlogKhsa>  (14) 
0.95199999999999996

>  <r_qp_QPlogKp>  (14) 
-5.2569999999999997

>  <r_qp_QPlogPC16>  (14) 
16.597000000000001

>  <r_qp_QPlogPo/w>  (14) 
4.9580000000000002

>  <r_qp_QPlogPoct>  (14) 
22.562999999999999

>  <r_qp_QPlogPw>  (14) 
10.144

>  <r_qp_QPlogS>  (14) 
-5.2450000000000001

>  <r_qp_QPpolrz>  (14) 
55.000999999999998

>  <r_qp_SASA>  (14) 
860.61300000000006

>  <r_qp_SAamideO>  (14) 
0

>  <r_qp_SAfluorine>  (14) 
0

>  <r_qp_WPSA>  (14) 
28.922999999999998

>  <r_qp_accptHB>  (14) 
7

>  <r_qp_dip^2/V>  (14) 
0.035012500000000002

>  <r_qp_dipole>  (14) 
7.4050000000000002

>  <r_qp_donorHB>  (14) 
0

>  <r_qp_glob>  (14) 
0.75778429999999997

>  <r_qp_mol_MW>  (14) 
487.61500000000001

>  <r_qp_volume>  (14) 
1565.9670000000001

>  <r_sd_BIOSOLVEIT.INFINISEE\_FTREES\_SIMILARITY>  (14) 
0.92700000000000005

>  <r_sd_BIOSOLVEIT.LOGP>  (14) 
4.2210999999999999

>  <r_sd_BIOSOLVEIT.MOLECULAR\_WEIGHT>  (14) 
488.62799999999999

>  <r_sd_BIOSOLVEIT.TPSA>  (14) 
63.079999999999998

>  <i_epik_Tot_Q>  (14) 
0

>  <i_epik_Tot_abs_Q>  (14) 
0

>  <i_f3d_flags>  (14) 
0

>  <i_i_glide_confnum>  (14) 
9

>  <i_i_glide_lignum>  (14) 
760

>  <i_i_glide_posenum>  (14) 
2

>  <i_i_glide_rotatable_bonds>  (14) 
10

>  <i_lp_mmshare_version>  (14) 
65135

>  <i_m_ct_format>  (14) 
2

>  <i_m_source_file_index>  (14) 
2238

>  <i_qp_#NandO>  (14) 
6

>  <i_qp_#acid>  (14) 
0

>  <i_qp_#amide>  (14) 
0

>  <i_qp_#amidine>  (14) 
0

>  <i_qp_#amine>  (14) 
2

>  <i_qp_#in34>  (14) 
0

>  <i_qp_#in56>  (14) 
21

>  <i_qp_#metab>  (14) 
6

>  <i_qp_#nonHatm>  (14) 
35

>  <i_qp_#noncon>  (14) 
0

>  <i_qp_#ringatoms>  (14) 
21

>  <i_qp_#rotor>  (14) 
8

>  <i_qp_#rtvFG>  (14) 
1

>  <i_qp_#stars>  (14) 
0

>  <i_qp_CNS>  (14) 
1

>  <i_qp_HumanOralAbsorption>  (14) 
3

>  <i_qp_RuleOfFive>  (14) 
0

>  <i_qp_RuleOfThree>  (14) 
0

>  <i_sd_BIOSOLVEIT.INFINISEE\_RESULT\_RANK>  (14) 
6704

>  <i_sd_version>  (14) 
0

>  <b_lp_Chiralities_Consistent>  (14) 
1

>  <b_sd_chiral_flag>  (14) 
0

>  <acquisition_id>  (14) 
ATP-ACQ-0014

>  <canonical_id>  (14) 
ATP-HTVS-83530B88E656

>  <compound_code>  (14) 
71585

>  <title>  (14) 
rxn512c____EMOL884318____EMOL523944____EMOL2873214

>  <variant>  (14) 
71585-2

>  <selection_arm>  (14) 
descriptor_diversity

>  <priority>  (14) 
P0

>  <wave>  (14) 
1

>  <source_file>  (14) 
运行/运行/ATP-VSW/ATP-VSW-DOCK_HTVS_1-001_lib/ATP-VSW-DOCK_HTVS_1-001_lib

>  <canonical_smiles>  (14) 
COC(=O)c1ccc(N(C)C(=O)c2sc3ccccc3c2NCc2cccc(CN(C)C)c2)cc1

$$$$
ATP-ACQ-0015
     RDKit          3D

 61 64  0  0  0  0  0  0  0  0999 V2000
  195.9739  184.2142  160.5316 F   0  0  0  0  0  0  0  0  0  0  0  0
  196.3261  185.2373  159.7156 C   0  0  0  0  0  0  0  0  0  0  0  0
  196.7622  184.9641  158.4072 C   0  0  0  0  0  0  0  0  0  0  0  0
  196.8173  183.5989  158.0025 N   0  0  0  0  0  0  0  0  0  0  0  0
  196.8879  183.1252  156.7467 C   0  0  0  0  0  0  0  0  0  0  0  0
  197.0802  183.8040  155.7511 O   0  0  0  0  0  0  0  0  0  0  0  0
  196.6833  181.7874  156.6914 N   0  0  0  0  0  0  0  0  0  0  0  0
  196.4367  181.0610  155.4591 C   0  0  1  0  0  0  0  0  0  0  0  0
  197.5440  181.1669  154.3863 C   0  0  2  0  0  0  0  0  0  0  0  0
  197.0712  180.6388  153.0989 N   0  0  0  0  0  0  0  0  0  0  0  0
  197.7385  179.5295  152.6990 C   0  0  0  0  0  0  0  0  0  0  0  0
  197.5695  178.8743  151.6959 O   0  0  0  0  0  0  0  0  0  0  0  0
  198.8454  179.3555  153.6940 C   0  0  0  0  0  0  0  0  0  0  0  0
  198.7368  180.2950  154.6886 C   0  0  0  0  0  0  0  0  0  0  0  0
  199.6640  180.3592  155.7515 C   0  0  0  0  0  0  0  0  0  0  0  0
  200.7249  179.4221  155.7444 C   0  0  0  0  0  0  0  0  0  0  0  0
  200.8513  178.4772  154.6938 C   0  0  0  0  0  0  0  0  0  0  0  0
  199.9072  178.4412  153.6386 C   0  0  0  0  0  0  0  0  0  0  0  0
  196.1600  181.4241  152.2621 C   0  0  1  0  0  0  0  0  0  0  0  0
  196.8350  182.2646  151.1804 C   0  0  0  0  0  0  0  0  0  0  0  0
  196.4858  183.6281  151.0170 C   0  0  0  0  0  0  0  0  0  0  0  0
  197.1162  184.4158  150.0234 C   0  0  0  0  0  0  0  0  0  0  0  0
  198.1005  183.8390  149.1906 C   0  0  0  0  0  0  0  0  0  0  0  0
  198.4391  182.4850  149.3414 C   0  0  0  0  0  0  0  0  0  0  0  0
  197.7961  181.7044  150.3220 C   0  0  0  0  0  0  0  0  0  0  0  0
  197.1235  186.0368  157.5653 C   0  0  0  0  0  0  0  0  0  0  0  0
  197.0072  187.3906  158.0219 C   0  0  0  0  0  0  0  0  0  0  0  0
  196.6302  187.6388  159.3402 C   0  0  0  0  0  0  0  0  0  0  0  0
  196.2681  186.5641  160.1944 C   0  0  0  0  0  0  0  0  0  0  0  0
  196.6206  189.0734  159.8456 C   0  0  1  0  0  0  0  0  0  0  0  0
  197.9885  189.6179  160.1469 N   0  0  2  0  0  0  0  0  0  0  0  0
  197.9353  191.0159  160.5922 C   0  0  2  0  0  0  0  0  0  0  0  0
  198.9589  189.4655  159.0202 C   0  0  2  0  0  0  0  0  0  0  0  0
  196.6153  182.9312  158.7323 H   0  0  0  0  0  0  0  0  0  0  0  0
  196.4709  181.2861  157.5351 H   0  0  0  0  0  0  0  0  0  0  0  0
  196.2450  180.0103  155.6679 H   0  0  0  0  0  0  0  0  0  0  0  0
  195.4968  181.4373  155.0613 H   0  0  0  0  0  0  0  0  0  0  0  0
  197.8875  182.1905  154.1969 H   0  0  0  0  0  0  0  0  0  0  0  0
  199.5679  181.0924  156.5390 H   0  0  0  0  0  0  0  0  0  0  0  0
  201.4528  179.4256  156.5444 H   0  0  0  0  0  0  0  0  0  0  0  0
  201.6677  177.7669  154.7017 H   0  0  0  0  0  0  0  0  0  0  0  0
  200.0018  177.7421  152.8204 H   0  0  0  0  0  0  0  0  0  0  0  0
  195.4455  180.7546  151.7928 H   0  0  0  0  0  0  0  0  0  0  0  0
  195.5860  182.0954  152.8932 H   0  0  0  0  0  0  0  0  0  0  0  0
  195.7442  184.0801  151.6584 H   0  0  0  0  0  0  0  0  0  0  0  0
  196.8519  185.4632  149.9066 H   0  0  0  0  0  0  0  0  0  0  0  0
  198.5939  184.4387  148.4416 H   0  0  0  0  0  0  0  0  0  0  0  0
  199.1931  182.0375  148.7157 H   0  0  0  0  0  0  0  0  0  0  0  0
  198.0733  180.6303  150.4142 H   0  0  0  0  0  0  0  0  0  0  0  0
  197.5002  185.9270  156.5677 H   0  0  0  0  0  0  0  0  0  0  0  0
  197.2516  188.1553  157.3280 H   0  0  0  0  0  0  0  0  0  0  0  0
  195.9599  186.7461  161.2139 H   0  0  0  0  0  0  0  0  0  0  0  0
  196.1162  189.7034  159.1077 H   0  0  0  0  0  0  0  0  0  0  0  0
  196.0115  189.1324  160.7545 H   0  0  0  0  0  0  0  0  0  0  0  0
  197.5004  191.6702  159.8356 H   0  0  0  0  0  0  0  0  0  0  0  0
  198.9423  191.3761  160.8073 H   0  0  0  0  0  0  0  0  0  0  0  0
  197.3514  191.1096  161.5101 H   0  0  0  0  0  0  0  0  0  0  0  0
  198.5952  189.9696  158.1305 H   0  0  0  0  0  0  0  0  0  0  0  0
  199.1439  188.4198  158.7830 H   0  0  0  0  0  0  0  0  0  0  0  0
  199.9335  189.9035  159.2786 H   0  0  0  0  0  0  0  0  0  0  0  0
  198.3668  189.1010  160.9136 H   0  0  0  0  0  0  0  0  0  0  0  0
  1  2  1  0
  2  3  2  0
  2 29  1  0
  3  4  1  0
  3 26  1  0
  4  5  1  0
  4 34  1  0
  5  6  2  0
  5  7  1  0
  7  8  1  0
  7 35  1  0
  8  9  1  0
  8 36  1  1
  8 37  1  0
  9 10  1  0
  9 14  1  0
  9 38  1  6
 10 11  1  0
 10 19  1  0
 11 12  2  0
 11 13  1  0
 13 14  1  0
 13 18  2  0
 14 15  2  0
 15 16  1  0
 15 39  1  0
 16 17  2  0
 16 40  1  0
 17 18  1  0
 17 41  1  0
 18 42  1  0
 19 20  1  0
 19 43  1  6
 19 44  1  0
 20 21  2  0
 20 25  1  0
 21 22  1  0
 21 45  1  0
 22 23  2  0
 22 46  1  0
 23 24  1  0
 23 47  1  0
 24 25  2  0
 24 48  1  0
 25 49  1  0
 26 27  2  0
 26 50  1  0
 27 28  1  0
 27 51  1  0
 28 29  2  0
 28 30  1  0
 29 52  1  0
 30 31  1  0
 30 53  1  6
 30 54  1  0
 31 32  1  0
 31 33  1  0
 31 61  1  1
 32 55  1  6
 32 56  1  0
 32 57  1  0
 33 58  1  6
 33 59  1  0
 33 60  1  0
M  CHG  1  31   1
M  END
>  <s_epik_cmdline>  (15) 
J2VwaWtfcHl0aG9uJywgJy1waCcsICc3LjAwMDAwMCcsICctcGh0JywgJzIuMDAwMDAwJywgJy1tcycsICcxNicsICctdG4nLCAnOCcsICctbWEnLCAnMjAwJywgJy1pbWFlJywgJzxpbmZpbGUubWFlPicsICctb21hZScsICc8b3V0ZmlsZS5tYWU+Jw==

>  <s_epik_input>  (15) 
W0NIM11OKFtDSDNdKVtDSDJdYyhbY0hdMSlbY0hdW2NIXWMoYzFGKVtOSF1DKD1PKVtOSF1bQ0gyXVtDQEBIXShjKGMyMylbY0hdW2NIXVtjSF1bY0hdMylOKEMyPU8pW0NIMl1jNFtjSF1bY0hdW2NIXVtjSF1bY0hdNA==

>  <s_i_glide_gridfile>  (15) 
ATP-Grid

>  <s_lp_Force_Field>  (15) 
OPLS_2005

>  <s_lp_Variant>  (15) 
m_2430bbb____22525962____12219700-1

>  <s_lp_label>  (15) 
873_sdstereoexpander_1_neutralizer_1_epik_1_stereoizer_1

>  <s_m_source_file>  (15) 
ATP-VSW-LIGPREP-003-in.maegz

>  <s_sd_BIOSOLVEIT.INFINISEE\_QUERY\_NAME>  (15) 
Ref-Lig

>  <s_sd_BIOSOLVEIT.INFINISEE\_QUERY\_SMILES>  (15) 
S(c1nc2c(cc1C[NH2+]Cc3ccc(cc3)C[NH+](C)C)cccc2)Cc4ccccc4

>  <s_sd_BIOSOLVEIT.INFINISEE\_REACTION\_NAME>  (15) 
m_2430bbb

>  <s_sd_BIOSOLVEIT.INFINISEE\_REAGENT1\_SMILES>  (15) 
[R1*]C(=O)Nc1c(F)cc(cc1)CN(C)C

>  <s_sd_BIOSOLVEIT.INFINISEE\_REAGENT2\_SMILES>  (15) 
[R1*]NCC1N(C(=O)c2c1cccc2)Cc3ccccc3

>  <s_sd_BIOSOLVEIT.INFINISEE\_SPACE>  (15) 
REALSpace_44bn_2023-08

>  <s_vsw_compound_code>  (15) 
27907

>  <s_vsw_variant>  (15) 
27907-1

>  <r_epik_Charging_Adjusted_Penalty>  (15) 
0.093921114358164207

>  <r_epik_Ionization_Penalty>  (15) 
0.047

>  <r_epik_Ionization_Penalty_Charging>  (15) 
0.047

>  <r_epik_Ionization_Penalty_Neutral>  (15) 
0

>  <r_epik_State_Penalty>  (15) 
0.047

>  <r_i_docking_score>  (15) 
-4.7621621555883902

>  <r_i_glide_ecoul>  (15) 
-7.9788541793823198

>  <r_i_glide_eff_state_penalty>  (15) 
0.047

>  <r_i_glide_einternal>  (15) 
2.2138612270355198

>  <r_i_glide_emodel>  (15) 
-61.029566429269003

>  <r_i_glide_energy>  (15) 
-45.081435203552203

>  <r_i_glide_erotb>  (15) 
0.79989992766617801

>  <r_i_glide_esite>  (15) 
-0.21513362877606301

>  <r_i_glide_evdw>  (15) 
-37.102581024169901

>  <r_i_glide_gscore>  (15) 
-4.8091621555883899

>  <r_i_glide_hbond>  (15) 
-0.17247791425106801

>  <r_i_glide_ligand_efficiency>  (15) 
-0.14430794410873901

>  <r_i_glide_ligand_efficiency_ln>  (15) 
-1.0590802062468401

>  <r_i_glide_ligand_efficiency_sa>  (15) 
-0.46287268428042

>  <r_i_glide_lipo>  (15) 
-1.5359798065413399

>  <r_i_glide_metal>  (15) 
-0

>  <r_i_glide_rewards>  (15) 
-0.63351355557025202

>  <r_lp_Energy>  (15) 
45.028903

>  <r_qp_ACxDN^.5/SA>  (15) 
0.012755300000000001

>  <r_qp_CIQPlogS>  (15) 
-4.9459999999999997

>  <r_qp_EA(eV)>  (15) 
0.32700000000000001

>  <r_qp_FISA>  (15) 
75.474000000000004

>  <r_qp_FOSA>  (15) 
254.15700000000001

>  <r_qp_IP(eV)>  (15) 
8.8249999999999993

>  <r_qp_Jm>  (15) 
0.0057919144945682297

>  <r_qp_PISA>  (15) 
414.42099999999999

>  <r_qp_PSA>  (15) 
79.379000000000005

>  <r_qp_PercentHumanOralAbsorption>  (15) 
96.686999999999998

>  <r_qp_QPPCaco>  (15) 
367.32999999999998

>  <r_qp_QPPMDCK>  (15) 
367.10700000000003

>  <r_qp_QPlogBB>  (15) 
-0.191

>  <r_qp_QPlogHERG>  (15) 
-6.2830000000000004

>  <r_qp_QPlogKhsa>  (15) 
0.442

>  <r_qp_QPlogKp>  (15) 
-2.8410000000000002

>  <r_qp_QPlogPC16>  (15) 
15.231

>  <r_qp_QPlogPo/w>  (15) 
4.0700000000000003

>  <r_qp_QPlogPoct>  (15) 
24.129999999999999

>  <r_qp_QPlogPw>  (15) 
14.252000000000001

>  <r_qp_QPlogS>  (15) 
-5.0460000000000003

>  <r_qp_QPpolrz>  (15) 
50.268000000000001

>  <r_qp_SASA>  (15) 
776.10799999999995

>  <r_qp_SAamideO>  (15) 
14.073

>  <r_qp_SAfluorine>  (15) 
32.055

>  <r_qp_WPSA>  (15) 
32.055

>  <r_qp_accptHB>  (15) 
7

>  <r_qp_dip^2/V>  (15) 
0.048571299999999998

>  <r_qp_dipole>  (15) 
8.3140000000000001

>  <r_qp_donorHB>  (15) 
2

>  <r_qp_glob>  (15) 
0.78843980000000002

>  <r_qp_mol_MW>  (15) 
446.52300000000002

>  <r_qp_volume>  (15) 
1423.2729999999999

>  <r_sd_BIOSOLVEIT.INFINISEE\_FTREES\_SIMILARITY>  (15) 
0.92000000000000004

>  <r_sd_BIOSOLVEIT.LOGP>  (15) 
2.9889999999999999

>  <r_sd_BIOSOLVEIT.MOLECULAR\_WEIGHT>  (15) 
447.53100000000001

>  <r_sd_BIOSOLVEIT.TPSA>  (15) 
65.879999999999995

>  <i_epik_Tot_Q>  (15) 
1

>  <i_epik_Tot_abs_Q>  (15) 
1

>  <i_f3d_flags>  (15) 
0

>  <i_i_glide_confnum>  (15) 
6

>  <i_i_glide_lignum>  (15) 
344

>  <i_i_glide_posenum>  (15) 
11

>  <i_i_glide_rotatable_bonds>  (15) 
9

>  <i_lp_mmshare_version>  (15) 
65135

>  <i_m_ct_format>  (15) 
2

>  <i_m_source_file_index>  (15) 
873

>  <i_qp_#NandO>  (15) 
6

>  <i_qp_#acid>  (15) 
0

>  <i_qp_#amide>  (15) 
1

>  <i_qp_#amidine>  (15) 
0

>  <i_qp_#amine>  (15) 
1

>  <i_qp_#in34>  (15) 
0

>  <i_qp_#in56>  (15) 
21

>  <i_qp_#metab>  (15) 
4

>  <i_qp_#nonHatm>  (15) 
33

>  <i_qp_#noncon>  (15) 
1

>  <i_qp_#ringatoms>  (15) 
21

>  <i_qp_#rotor>  (15) 
7

>  <i_qp_#rtvFG>  (15) 
0

>  <i_qp_#stars>  (15) 
0

>  <i_qp_CNS>  (15) 
1

>  <i_qp_HumanOralAbsorption>  (15) 
3

>  <i_qp_RuleOfFive>  (15) 
0

>  <i_qp_RuleOfThree>  (15) 
0

>  <i_sd_BIOSOLVEIT.INFINISEE\_REAGENT1\_NAME>  (15) 
22525962

>  <i_sd_BIOSOLVEIT.INFINISEE\_REAGENT2\_NAME>  (15) 
12219700

>  <i_sd_BIOSOLVEIT.INFINISEE\_RESULT\_RANK>  (15) 
16712

>  <i_sd_version>  (15) 
0

>  <b_lp_Chiralities_Consistent>  (15) 
1

>  <b_sd_chiral_flag>  (15) 
0

>  <acquisition_id>  (15) 
ATP-ACQ-0015

>  <canonical_id>  (15) 
ATP-HTVS-1356F7D69808

>  <compound_code>  (15) 
27907

>  <title>  (15) 
m_2430bbb____22525962____12219700

>  <variant>  (15) 
27907-1

>  <selection_arm>  (15) 
score_calibration

>  <priority>  (15) 
P0

>  <wave>  (15) 
1

>  <source_file>  (15) 
运行/运行/ATP-VSW/ATP-VSW-DOCK_HTVS_1-003_lib/ATP-VSW-DOCK_HTVS_1-003_lib.mae

>  <canonical_smiles>  (15) 
C[NH+](C)Cc1ccc(NC(=O)NC[C@H]2c3ccccc3C(=O)N2Cc2ccccc2)c(F)c1

$$$$
ATP-ACQ-0016
     RDKit          3D

 57 60  0  0  0  0  0  0  0  0999 V2000
  199.0484  178.6743  152.6399 S   0  0  0  0  0  0  0  0  0  0  0  0
  199.8587  178.5031  154.1909 C   0  0  0  0  0  0  0  0  0  0  0  0
  199.1884  179.2617  155.2048 C   0  0  0  0  0  0  0  0  0  0  0  0
  199.7684  179.2360  156.4993 C   0  0  0  0  0  0  0  0  0  0  0  0
  200.9261  178.4900  156.7860 C   0  0  0  0  0  0  0  0  0  0  0  0
  201.5467  177.7430  155.7718 C   0  0  0  0  0  0  0  0  0  0  0  0
  201.0133  177.7488  154.4718 C   0  0  0  0  0  0  0  0  0  0  0  0
  198.0059  179.9286  154.6885 C   0  0  0  0  0  0  0  0  0  0  0  0
  197.2158  180.7200  155.5701 C   0  0  0  0  0  0  0  0  0  0  0  0
  196.5870  181.4131  156.3505 C   0  0  0  0  0  0  0  0  0  0  0  0
  195.8794  182.2192  157.3553 C   0  0  1  0  0  0  0  0  0  0  0  0
  194.7000  181.4391  157.7190 N   0  0  2  0  0  0  0  0  0  0  0  0
  196.7518  182.5736  158.5752 C   0  0  1  0  0  0  0  0  0  0  0  0
  196.4153  183.9264  159.1853 C   0  0  0  0  0  0  0  0  0  0  0  0
  197.3801  184.9561  159.1857 C   0  0  0  0  0  0  0  0  0  0  0  0
  197.0706  186.2205  159.7252 C   0  0  0  0  0  0  0  0  0  0  0  0
  197.9967  187.2073  159.7120 F   0  0  0  0  0  0  0  0  0  0  0  0
  195.7972  186.4625  160.2706 C   0  0  0  0  0  0  0  0  0  0  0  0
  194.8320  185.4361  160.2739 C   0  0  0  0  0  0  0  0  0  0  0  0
  195.1410  184.1722  159.7384 C   0  0  0  0  0  0  0  0  0  0  0  0
  197.8125  179.6812  153.3444 C   0  0  0  0  0  0  0  0  0  0  0  0
  196.6959  180.1862  152.4743 C   0  0  1  0  0  0  0  0  0  0  0  0
  197.0581  181.3908  151.7010 N   0  0  0  0  0  0  0  0  0  0  0  0
  197.1463  181.3692  150.3456 C   0  0  0  0  0  0  0  0  0  0  0  0
  196.9462  180.3560  149.6632 O   0  0  0  0  0  0  0  0  0  0  0  0
  197.5251  182.6434  149.6436 C   0  0  0  0  0  0  0  0  0  0  0  0
  196.7339  183.8208  149.7380 C   0  0  0  0  0  0  0  0  0  0  0  0
  195.5592  183.8397  150.4391 O   0  0  0  0  0  0  0  0  0  0  0  0
  197.1477  185.0148  149.1185 C   0  0  0  0  0  0  0  0  0  0  0  0
  198.3361  185.0431  148.3746 C   0  0  0  0  0  0  0  0  0  0  0  0
  199.1116  183.8792  148.2440 C   0  0  0  0  0  0  0  0  0  0  0  0
  198.7101  182.6884  148.8793 C   0  0  0  0  0  0  0  0  0  0  0  0
  197.4521  182.5740  152.4966 C   0  0  2  0  0  0  0  0  0  0  0  0
  194.1476  181.2820  156.8941 H   0  0  0  0  0  0  0  0  0  0  0  0
  194.1494  181.9231  158.3923 H   0  0  0  0  0  0  0  0  0  0  0  0
  199.2984  179.7861  157.3012 H   0  0  0  0  0  0  0  0  0  0  0  0
  201.3373  178.4847  157.7866 H   0  0  0  0  0  0  0  0  0  0  0  0
  202.4323  177.1652  155.9954 H   0  0  0  0  0  0  0  0  0  0  0  0
  201.4955  177.1828  153.6890 H   0  0  0  0  0  0  0  0  0  0  0  0
  195.5431  183.1311  156.8555 H   0  0  0  0  0  0  0  0  0  0  0  0
  196.6381  181.8000  159.3316 H   0  0  0  0  0  0  0  0  0  0  0  0
  197.8067  182.5641  158.3155 H   0  0  0  0  0  0  0  0  0  0  0  0
  198.3633  184.7896  158.7665 H   0  0  0  0  0  0  0  0  0  0  0  0
  195.5637  187.4316  160.6845 H   0  0  0  0  0  0  0  0  0  0  0  0
  193.8508  185.6222  160.6870 H   0  0  0  0  0  0  0  0  0  0  0  0
  194.3892  183.3991  159.7492 H   0  0  0  0  0  0  0  0  0  0  0  0
  196.3367  179.3676  151.8394 H   0  0  0  0  0  0  0  0  0  0  0  0
  195.8403  180.4384  153.0954 H   0  0  0  0  0  0  0  0  0  0  0  0
  195.5417  183.2478  151.1794 H   0  0  0  0  0  0  0  0  0  0  0  0
  196.5549  185.9138  149.2221 H   0  0  0  0  0  0  0  0  0  0  0  0
  198.6585  185.9551  147.8985 H   0  0  0  0  0  0  0  0  0  0  0  0
  200.0208  183.9017  147.6616 H   0  0  0  0  0  0  0  0  0  0  0  0
  199.3190  181.8057  148.7776 H   0  0  0  0  0  0  0  0  0  0  0  0
  198.5108  182.7973  152.3122 H   0  0  0  0  0  0  0  0  0  0  0  0
  197.3187  182.4044  153.5633 H   0  0  0  0  0  0  0  0  0  0  0  0
  196.8488  183.4572  152.2659 H   0  0  0  0  0  0  0  0  0  0  0  0
  194.9750  180.5061  158.1126 H   0  0  0  0  0  0  0  0  0  0  0  0
  1  2  1  0
  1 21  1  0
  2  3  1  0
  2  7  2  0
  3  4  2  0
  3  8  1  0
  4  5  1  0
  4 36  1  0
  5  6  2  0
  5 37  1  0
  6  7  1  0
  6 38  1  0
  7 39  1  0
  8  9  1  0
  8 21  2  0
  9 10  3  0
 10 11  1  0
 11 12  1  0
 11 13  1  0
 11 40  1  6
 12 34  1  6
 12 35  1  0
 12 57  1  0
 13 14  1  0
 13 41  1  1
 13 42  1  0
 14 15  1  0
 14 20  2  0
 15 16  2  0
 15 43  1  0
 16 17  1  0
 16 18  1  0
 18 19  2  0
 18 44  1  0
 19 20  1  0
 19 45  1  0
 20 46  1  0
 21 22  1  0
 22 23  1  0
 22 47  1  6
 22 48  1  0
 23 24  1  0
 23 33  1  0
 24 25  2  0
 24 26  1  0
 26 27  1  0
 26 32  2  0
 27 28  1  0
 27 29  2  0
 28 49  1  0
 29 30  1  0
 29 50  1  0
 30 31  2  0
 30 51  1  0
 31 32  1  0
 31 52  1  0
 32 53  1  0
 33 54  1  1
 33 55  1  0
 33 56  1  0
M  CHG  1  12   1
M  END
>  <s_epik_cmdline>  (16) 
J2VwaWtfcHl0aG9uJywgJy1waCcsICc3LjAwMDAwMCcsICctcGh0JywgJzIuMDAwMDAwJywgJy1tcycsICcxNicsICctdG4nLCAnOCcsICctbWEnLCAnMjAwJywgJy1pbWFlJywgJzxpbmZpbGUubWFlPicsICctb21hZScsICc8b3V0ZmlsZS5tYWU+Jw==

>  <s_epik_input>  (16) 
W2NIXTFbY0hdW2NIXVtjSF1jKFtPSF0pYzFDKD1PKU4oW0NIM10pW0NIMl1jKHMyKWMoYyhjMjMpW2NIXVtjSF1bY0hdW2NIXTMpQyNDW0NAQEhdKFtOSDJdKVtDSDJdYzRbY0hdYyhGKVtjSF1bY0hdW2NIXTQ=

>  <s_i_glide_gridfile>  (16) 
ATP-Grid

>  <s_lp_Force_Field>  (16) 
OPLS_2005

>  <s_lp_Variant>  (16) 
rxn503c____EMOL478035____EMOL49259969____EMOL313110234-4

>  <s_lp_label>  (16) 
2644_sdstereoexpander_2_neutralizer_1_epik_2_stereoizer_1

>  <s_m_source_file>  (16) 
ATP-VSW-LIGPREP-001-in.maegz

>  <s_sd_BIOSOLVEIT.INFINISEE\_QUERY\_NAME>  (16) 
Ref-Lig

>  <s_sd_BIOSOLVEIT.INFINISEE\_QUERY\_SMILES>  (16) 
S(c1nc2c(cc1C[NH2+]Cc3ccc(cc3)C[NH+](C)C)cccc2)Cc4ccccc4

>  <s_sd_BIOSOLVEIT.INFINISEE\_REACTION\_NAME>  (16) 
rxn503c

>  <s_sd_BIOSOLVEIT.INFINISEE\_REAGENT1\_NAME>  (16) 
EMOL478035

>  <s_sd_BIOSOLVEIT.INFINISEE\_REAGENT1\_SMILES>  (16) 
O=C(O)c1c(O)cccc1

>  <s_sd_BIOSOLVEIT.INFINISEE\_REAGENT2\_NAME>  (16) 
EMOL49259969

>  <s_sd_BIOSOLVEIT.INFINISEE\_REAGENT2\_SMILES>  (16) 
ClC=1c2c(SC1CNC)cccc2

>  <s_sd_BIOSOLVEIT.INFINISEE\_REAGENT3\_NAME>  (16) 
EMOL313110234

>  <s_sd_BIOSOLVEIT.INFINISEE\_REAGENT3\_SMILES>  (16) 
Fc1cc(ccc1)CC(N)C#C

>  <s_sd_BIOSOLVEIT.INFINISEE\_SPACE>  (16) 
eXplore_7tr_2022-12

>  <s_vsw_compound_code>  (16) 
84577

>  <s_vsw_variant>  (16) 
84577-4

>  <r_epik_Charging_Adjusted_Penalty>  (16) 
1.21575498988359

>  <r_epik_Ionization_Penalty>  (16) 
0.63549999999999995

>  <r_epik_Ionization_Penalty_Charging>  (16) 
0.58030000000000004

>  <r_epik_Ionization_Penalty_Neutral>  (16) 
0.055199999999999999

>  <r_epik_State_Penalty>  (16) 
0.63549999999999995

>  <r_i_docking_score>  (16) 
-6.7131225125310401

>  <r_i_glide_ecoul>  (16) 
-15.4359216690063

>  <r_i_glide_eff_state_penalty>  (16) 
0.63549999999999995

>  <r_i_glide_einternal>  (16) 
8.6129016876220703

>  <r_i_glide_emodel>  (16) 
-81.203723621153699

>  <r_i_glide_energy>  (16) 
-52.396424293518102

>  <r_i_glide_erotb>  (16) 
0.46685289725444301

>  <r_i_glide_esite>  (16) 
-0.10000000000000001

>  <r_i_glide_evdw>  (16) 
-36.960502624511697

>  <r_i_glide_gscore>  (16) 
-7.3486225125310396

>  <r_i_glide_hbond>  (16) 
-0.53603289544564703

>  <r_i_glide_ligand_efficiency>  (16) 
-0.20342795492518301

>  <r_i_glide_ligand_efficiency_ln>  (16) 
-1.49296368809878

>  <r_i_glide_ligand_efficiency_sa>  (16) 
-0.65250214834287601

>  <r_i_glide_lipo>  (16) 
-2.0782676802436999

>  <r_i_glide_metal>  (16) 
-0

>  <r_i_glide_rewards>  (16) 
-0.93776145251959797

>  <r_lp_Energy>  (16) 
26.653186999999999

>  <r_lp_tautomer_probability>  (16) 
0.999999999997365

>  <r_qp_ACxDN^.5/SA>  (16) 
0.0084510999999999996

>  <r_qp_CIQPlogS>  (16) 
-7.1539999999999999

>  <r_qp_EA(eV)>  (16) 
0.88100000000000001

>  <r_qp_FISA>  (16) 
112.51900000000001

>  <r_qp_FOSA>  (16) 
128.64400000000001

>  <r_qp_IP(eV)>  (16) 
8.6780000000000008

>  <r_qp_Jm>  (16) 
0.018882791370007399

>  <r_qp_PISA>  (16) 
328.96499999999997

>  <r_qp_PSA>  (16) 
73.174000000000007

>  <r_qp_PercentHumanOralAbsorption>  (16) 
100

>  <r_qp_QPPCaco>  (16) 
211.72800000000001

>  <r_qp_QPPMDCK>  (16) 
210.81899999999999

>  <r_qp_QPlogBB>  (16) 
-0.33700000000000002

>  <r_qp_QPlogHERG>  (16) 
-5.218

>  <r_qp_QPlogKhsa>  (16) 
0.97899999999999998

>  <r_qp_QPlogKp>  (16) 
-3.633

>  <r_qp_QPlogPC16>  (16) 
13.834

>  <r_qp_QPlogPo/w>  (16) 
4.9690000000000003

>  <r_qp_QPlogPoct>  (16) 
20.396999999999998

>  <r_qp_QPlogPw>  (16) 
8.8900000000000006

>  <r_qp_QPlogS>  (16) 
-3.7519999999999998

>  <r_qp_QPpolrz>  (16) 
42.901000000000003

>  <r_qp_SASA>  (16) 
627.52700000000004

>  <r_qp_SAamideO>  (16) 
0

>  <r_qp_SAfluorine>  (16) 
30.637

>  <r_qp_WPSA>  (16) 
57.399000000000001

>  <r_qp_accptHB>  (16) 
3.75

>  <r_qp_dip^2/V>  (16) 
0.051728999999999997

>  <r_qp_dipole>  (16) 
8.1739999999999995

>  <r_qp_donorHB>  (16) 
2

>  <r_qp_glob>  (16) 
0.91403829999999997

>  <r_qp_mol_MW>  (16) 
458.54899999999998

>  <r_qp_volume>  (16) 
1291.6600000000001

>  <r_sd_BIOSOLVEIT.INFINISEE\_FTREES\_SIMILARITY>  (16) 
0.91000000000000003

>  <r_sd_BIOSOLVEIT.LOGP>  (16) 
4.2229000000000001

>  <r_sd_BIOSOLVEIT.MOLECULAR\_WEIGHT>  (16) 
459.56200000000001

>  <r_sd_BIOSOLVEIT.TPSA>  (16) 
68.180000000000007

>  <i_epik_Tot_Q>  (16) 
1

>  <i_epik_Tot_abs_Q>  (16) 
1

>  <i_f3d_flags>  (16) 
0

>  <i_i_glide_confnum>  (16) 
4

>  <i_i_glide_lignum>  (16) 
1133

>  <i_i_glide_posenum>  (16) 
19

>  <i_i_glide_rotatable_bonds>  (16) 
9

>  <i_lp_mmshare_version>  (16) 
65135

>  <i_m_ct_format>  (16) 
2

>  <i_m_source_file_index>  (16) 
2644

>  <i_qp_#NandO>  (16) 
4

>  <i_qp_#acid>  (16) 
0

>  <i_qp_#amide>  (16) 
0

>  <i_qp_#amidine>  (16) 
0

>  <i_qp_#amine>  (16) 
1

>  <i_qp_#in34>  (16) 
0

>  <i_qp_#in56>  (16) 
21

>  <i_qp_#metab>  (16) 
7

>  <i_qp_#nonHatm>  (16) 
33

>  <i_qp_#noncon>  (16) 
0

>  <i_qp_#ringatoms>  (16) 
21

>  <i_qp_#rotor>  (16) 
9

>  <i_qp_#rtvFG>  (16) 
0

>  <i_qp_#stars>  (16) 
0

>  <i_qp_CNS>  (16) 
1

>  <i_qp_HumanOralAbsorption>  (16) 
3

>  <i_qp_RuleOfFive>  (16) 
0

>  <i_qp_RuleOfThree>  (16) 
1

>  <i_sd_BIOSOLVEIT.INFINISEE\_RESULT\_RANK>  (16) 
45595

>  <i_sd_version>  (16) 
0

>  <b_lp_Chiralities_Consistent>  (16) 
1

>  <b_sd_chiral_flag>  (16) 
0

>  <acquisition_id>  (16) 
ATP-ACQ-0016

>  <canonical_id>  (16) 
ATP-HTVS-65F4836C7042

>  <compound_code>  (16) 
84577

>  <title>  (16) 
rxn503c____EMOL478035____EMOL49259969____EMOL313110234

>  <variant>  (16) 
84577-4

>  <selection_arm>  (16) 
exploitation

>  <priority>  (16) 
P0

>  <wave>  (16) 
1

>  <source_file>  (16) 
运行/运行/ATP-VSW/ATP-VSW-DOCK_HTVS_1-001_lib/ATP-VSW-DOCK_HTVS_1-001_lib

>  <canonical_smiles>  (16) 
CN(Cc1sc2ccccc2c1C#C[C@@H]([NH3+])Cc1cccc(F)c1)C(=O)c1ccccc1O

$$$$
ATP-ACQ-0017
     RDKit          3D

 49 52  0  0  0  0  0  0  0  0999 V2000
  200.1668  180.1073  156.8499 O   0  0  0  0  0  0  0  0  0  0  0  0
  199.0402  180.3534  156.3699 C   0  0  0  0  0  0  0  0  0  0  0  0
  198.4739  179.6555  155.3520 N   0  0  0  0  0  0  0  0  0  0  0  0
  199.1893  178.6405  154.6630 C   0  0  0  0  0  0  0  0  0  0  0  0
  199.7234  177.5206  155.3515 C   0  0  0  0  0  0  0  0  0  0  0  0
  200.3685  176.4970  154.6362 C   0  0  0  0  0  0  0  0  0  0  0  0
  200.4817  176.5647  153.2378 C   0  0  0  0  0  0  0  0  0  0  0  0
  199.9490  177.6683  152.5452 C   0  0  0  0  0  0  0  0  0  0  0  0
  199.3095  178.7024  153.2574 C   0  0  0  0  0  0  0  0  0  0  0  0
  197.1212  179.9831  154.8588 C   0  0  2  0  0  0  0  0  0  0  0  0
  198.3220  181.5506  156.8964 C   0  0  0  0  0  0  0  0  0  0  0  0
  197.0961  181.4340  157.4729 N   0  0  0  0  0  0  0  0  0  0  0  0
  196.3906  182.4760  157.9385 C   0  0  0  0  0  0  0  0  0  0  0  0
  196.9466  183.7775  157.9201 C   0  0  0  0  0  0  0  0  0  0  0  0
  198.2480  183.9562  157.3736 C   0  0  0  0  0  0  0  0  0  0  0  0
  198.8618  185.1817  157.3730 O   0  0  0  0  0  0  0  0  0  0  0  0
  199.7749  185.4456  158.3757 C   0  0  0  0  0  0  0  0  0  0  0  0
  199.9963  186.7947  158.7424 C   0  0  0  0  0  0  0  0  0  0  0  0
  200.9483  187.1234  159.7377 C   0  0  0  0  0  0  0  0  0  0  0  0
  201.6682  186.0936  160.3781 C   0  0  0  0  0  0  0  0  0  0  0  0
  201.4551  184.7567  160.0183 C   0  0  0  0  0  0  0  0  0  0  0  0
  200.5103  184.4286  159.0343 C   0  0  0  0  0  0  0  0  0  0  0  0
  202.6773  186.4061  161.4629 C   0  0  2  0  0  0  0  0  0  0  0  0
  198.9142  182.8350  156.8421 C   0  0  0  0  0  0  0  0  0  0  0  0
  196.2056  184.8508  158.4526 C   0  0  0  0  0  0  0  0  0  0  0  0
  194.9177  184.6158  158.9685 C   0  0  0  0  0  0  0  0  0  0  0  0
  194.3542  183.3270  158.9408 C   0  0  0  0  0  0  0  0  0  0  0  0
  195.1081  182.2356  158.4696 C   0  0  0  0  0  0  0  0  0  0  0  0
  199.6160  177.4415  156.4232 H   0  0  0  0  0  0  0  0  0  0  0  0
  200.7584  175.6428  155.1686 H   0  0  0  0  0  0  0  0  0  0  0  0
  200.9610  175.7691  152.6944 H   0  0  0  0  0  0  0  0  0  0  0  0
  200.0263  177.7125  151.4652 H   0  0  0  0  0  0  0  0  0  0  0  0
  198.8961  179.5372  152.7026 H   0  0  0  0  0  0  0  0  0  0  0  0
  196.8530  179.4501  153.9516 H   0  0  0  0  0  0  0  0  0  0  0  0
  196.9872  181.0393  154.6565 H   0  0  0  0  0  0  0  0  0  0  0  0
  196.4069  179.6699  155.5947 H   0  0  0  0  0  0  0  0  0  0  0  0
  199.4510  187.5937  158.2558 H   0  0  0  0  0  0  0  0  0  0  0  0
  201.1052  188.1590  160.0163 H   0  0  0  0  0  0  0  0  0  0  0  0
  202.0070  183.9651  160.4959 H   0  0  0  0  0  0  0  0  0  0  0  0
  200.4220  183.3752  158.8228 H   0  0  0  0  0  0  0  0  0  0  0  0
  202.7891  185.5405  162.1261 H   0  0  0  0  0  0  0  0  0  0  0  0
  202.3560  187.2628  162.0660 H   0  0  0  0  0  0  0  0  0  0  0  0
  203.6512  186.6220  161.0104 H   0  0  0  0  0  0  0  0  0  0  0  0
  199.8925  182.9435  156.3794 H   0  0  0  0  0  0  0  0  0  0  0  0
  196.6120  185.8443  158.4478 H   0  0  0  0  0  0  0  0  0  0  0  0
  194.3420  185.4365  159.3491 H   0  0  0  0  0  0  0  0  0  0  0  0
  193.3460  183.1652  159.2931 H   0  0  0  0  0  0  0  0  0  0  0  0
  194.6960  181.2361  158.4501 H   0  0  0  0  0  0  0  0  0  0  0  0
  196.6560  180.5027  157.5685 H   0  0  0  0  0  0  0  0  0  0  0  0
  1  2  2  0
  2  3  1  0
  2 11  1  0
  3  4  1  0
  3 10  1  0
  4  5  2  0
  4  9  1  0
  5  6  1  0
  5 29  1  0
  6  7  2  0
  6 30  1  0
  7  8  1  0
  7 31  1  0
  8  9  2  0
  8 32  1  0
  9 33  1  0
 10 34  1  6
 10 35  1  0
 10 36  1  0
 11 12  2  0
 11 24  1  0
 12 13  1  0
 12 49  1  0
 13 14  1  0
 13 28  2  0
 14 15  1  0
 14 25  2  0
 15 16  1  0
 15 24  2  0
 16 17  1  0
 17 18  1  0
 17 22  2  0
 18 19  2  0
 18 37  1  0
 19 20  1  0
 19 38  1  0
 20 21  2  0
 20 23  1  0
 21 22  1  0
 21 39  1  0
 22 40  1  0
 23 41  1  1
 23 42  1  0
 23 43  1  0
 24 44  1  0
 25 26  1  0
 25 45  1  0
 26 27  2  0
 26 46  1  0
 27 28  1  0
 27 47  1  0
 28 48  1  0
M  CHG  1  12   1
M  END
>  <s_epik_cmdline>  (17) 
J2VwaWtfcHl0aG9uJywgJy1waCcsICc3LjAwMDAwMCcsICctcGh0JywgJzIuMDAwMDAwJywgJy1tcycsICcxNicsICctdG4nLCAnOCcsICctbWEnLCAnMjAwJywgJy1pbWFlJywgJzxpbmZpbGUubWFlPicsICctb21hZScsICc8b3V0ZmlsZS5tYWU+Jw==

>  <s_epik_input>  (17) 
W2NIXTFbY0hdW2NIXVtjSF1bY0hdYzFOKFtDSDNdKUMoPU8pYyhuMilbY0hdYyhjKGMyMylbY0hdW2NIXVtjSF1bY0hdMylPYzRbY0hdW2NIXWMoW0NIM10pW2NIXVtjSF00

>  <s_i_glide_gridfile>  (17) 
ATP-Grid

>  <s_lp_Force_Field>  (17) 
OPLS_2005

>  <s_lp_Variant>  (17) 
a1____51052____400834-2

>  <s_lp_label>  (17) 
446_sdstereoexpander_1_neutralizer_1_epik_2_stereoizer_1

>  <s_m_source_file>  (17) 
ATP-VSW-LIGPREP-003-in.maegz

>  <s_sd_BIOSOLVEIT.INFINISEE\_QUERY\_NAME>  (17) 
Ref-Lig

>  <s_sd_BIOSOLVEIT.INFINISEE\_QUERY\_SMILES>  (17) 
S(c1nc2c(cc1C[NH2+]Cc3ccc(cc3)C[NH+](C)C)cccc2)Cc4ccccc4

>  <s_sd_BIOSOLVEIT.INFINISEE\_REACTION\_NAME>  (17) 
a1

>  <s_sd_BIOSOLVEIT.INFINISEE\_REAGENT1\_SMILES>  (17) 
[R1*]N(c1ccccc1)C

>  <s_sd_BIOSOLVEIT.INFINISEE\_REAGENT2\_SMILES>  (17) 
[R1*]C(=O)c1nc2c(c(Oc3ccc(cc3)C)c1)cccc2

>  <s_sd_BIOSOLVEIT.INFINISEE\_SPACE>  (17) 
FreedomSpace_5bn_2023-06

>  <s_vsw_compound_code>  (17) 
14243

>  <s_vsw_variant>  (17) 
14243-2

>  <r_epik_Charging_Adjusted_Penalty>  (17) 
1.4703333805084799

>  <r_epik_Ionization_Penalty>  (17) 
0.73519999999999996

>  <r_epik_Ionization_Penalty_Charging>  (17) 
0.73519999999999996

>  <r_epik_Ionization_Penalty_Neutral>  (17) 
0

>  <r_epik_State_Penalty>  (17) 
0.73519999999999996

>  <r_i_docking_score>  (17) 
-3.6253229383866601

>  <r_i_glide_ecoul>  (17) 
-8.17736911773682

>  <r_i_glide_eff_state_penalty>  (17) 
0.73519999999999996

>  <r_i_glide_einternal>  (17) 
7.6476392745971697

>  <r_i_glide_emodel>  (17) 
-47.679065713824897

>  <r_i_glide_energy>  (17) 
-36.839856147766099

>  <r_i_glide_erotb>  (17) 
0.70635175722167798

>  <r_i_glide_esite>  (17) 
-0.210640452588892

>  <r_i_glide_evdw>  (17) 
-28.6624870300293

>  <r_i_glide_gscore>  (17) 
-4.3605229383866604

>  <r_i_glide_hbond>  (17) 
-0.20000000000000001

>  <r_i_glide_ligand_efficiency>  (17) 
-0.12947581922809501

>  <r_i_glide_ligand_efficiency_ln>  (17) 
-0.83683097828639696

>  <r_i_glide_ligand_efficiency_sa>  (17) 
-0.39316484435589799

>  <r_i_glide_lipo>  (17) 
-0.88129366022109501

>  <r_i_glide_metal>  (17) 
-0

>  <r_i_glide_rewards>  (17) 
-1.11521086363636

>  <r_lp_Energy>  (17) 
41.937814000000003

>  <r_lp_tautomer_probability>  (17) 
1

>  <r_qp_ACxDN^.5/SA>  (17) 
0

>  <r_qp_CIQPlogS>  (17) 
-6.1289999999999996

>  <r_qp_EA(eV)>  (17) 
1.0529999999999999

>  <r_qp_FISA>  (17) 
50.488

>  <r_qp_FOSA>  (17) 
147.47399999999999

>  <r_qp_IP(eV)>  (17) 
8.9209999999999994

>  <r_qp_Jm>  (17) 
2.6042895929375698

>  <r_qp_PISA>  (17) 
396.928

>  <r_qp_PSA>  (17) 
46.762

>  <r_qp_PercentHumanOralAbsorption>  (17) 
100

>  <r_qp_QPPCaco>  (17) 
3289.4279999999999

>  <r_qp_QPPMDCK>  (17) 
1791.827

>  <r_qp_QPlogBB>  (17) 
-0.11

>  <r_qp_QPlogHERG>  (17) 
-5.335

>  <r_qp_QPlogKhsa>  (17) 
0.52500000000000002

>  <r_qp_QPlogKp>  (17) 
-0.66800000000000004

>  <r_qp_QPlogPC16>  (17) 
11.959

>  <r_qp_QPlogPo/w>  (17) 
4.5910000000000002

>  <r_qp_QPlogPoct>  (17) 
16.446000000000002

>  <r_qp_QPlogPw>  (17) 
7.7439999999999998

>  <r_qp_QPlogS>  (17) 
-4.4829999999999997

>  <r_qp_QPpolrz>  (17) 
40.292999999999999

>  <r_qp_SASA>  (17) 
594.88999999999999

>  <r_qp_SAamideO>  (17) 
0

>  <r_qp_SAfluorine>  (17) 
0

>  <r_qp_WPSA>  (17) 
0

>  <r_qp_accptHB>  (17) 
4.5

>  <r_qp_dip^2/V>  (17) 
0.0493648

>  <r_qp_dipole>  (17) 
7.4690000000000003

>  <r_qp_donorHB>  (17) 
0

>  <r_qp_glob>  (17) 
0.88197919999999996

>  <r_qp_mol_MW>  (17) 
368.43400000000003

>  <r_qp_volume>  (17) 
1130.0440000000001

>  <r_sd_BIOSOLVEIT.INFINISEE\_FTREES\_SIMILARITY>  (17) 
0.90700000000000003

>  <r_sd_BIOSOLVEIT.LOGP>  (17) 
5.61212

>  <r_sd_BIOSOLVEIT.MOLECULAR\_WEIGHT>  (17) 
368.43400000000003

>  <r_sd_BIOSOLVEIT.TPSA>  (17) 
42.43

>  <i_epik_Tot_Q>  (17) 
1

>  <i_epik_Tot_abs_Q>  (17) 
1

>  <i_f3d_flags>  (17) 
0

>  <i_i_glide_confnum>  (17) 
3

>  <i_i_glide_lignum>  (17) 
238

>  <i_i_glide_posenum>  (17) 
17

>  <i_i_glide_rotatable_bonds>  (17) 
5

>  <i_lp_mmshare_version>  (17) 
65135

>  <i_m_ct_format>  (17) 
2

>  <i_m_source_file_index>  (17) 
446

>  <i_qp_#NandO>  (17) 
4

>  <i_qp_#acid>  (17) 
0

>  <i_qp_#amide>  (17) 
0

>  <i_qp_#amidine>  (17) 
0

>  <i_qp_#amine>  (17) 
0

>  <i_qp_#in34>  (17) 
0

>  <i_qp_#in56>  (17) 
22

>  <i_qp_#metab>  (17) 
2

>  <i_qp_#nonHatm>  (17) 
28

>  <i_qp_#noncon>  (17) 
0

>  <i_qp_#ringatoms>  (17) 
22

>  <i_qp_#rotor>  (17) 
4

>  <i_qp_#rtvFG>  (17) 
0

>  <i_qp_#stars>  (17) 
0

>  <i_qp_CNS>  (17) 
0

>  <i_qp_HumanOralAbsorption>  (17) 
3

>  <i_qp_RuleOfFive>  (17) 
0

>  <i_qp_RuleOfThree>  (17) 
0

>  <i_sd_BIOSOLVEIT.INFINISEE\_REAGENT1\_NAME>  (17) 
51052

>  <i_sd_BIOSOLVEIT.INFINISEE\_REAGENT2\_NAME>  (17) 
400834

>  <i_sd_BIOSOLVEIT.INFINISEE\_RESULT\_RANK>  (17) 
61367

>  <i_sd_version>  (17) 
0

>  <b_lp_Chiralities_Consistent>  (17) 
1

>  <b_sd_chiral_flag>  (17) 
0

>  <acquisition_id>  (17) 
ATP-ACQ-0017

>  <canonical_id>  (17) 
ATP-HTVS-542A37ED863C

>  <compound_code>  (17) 
14243

>  <title>  (17) 
a1____51052____400834

>  <variant>  (17) 
14243-2

>  <selection_arm>  (17) 
descriptor_diversity

>  <priority>  (17) 
P0

>  <wave>  (17) 
1

>  <source_file>  (17) 
运行/运行/ATP-VSW/ATP-VSW-DOCK_HTVS_1-003_lib/ATP-VSW-DOCK_HTVS_1-003_lib.mae

>  <canonical_smiles>  (17) 
Cc1ccc(Oc2cc(C(=O)N(C)c3ccccc3)[nH+]c3ccccc23)cc1

$$$$
ATP-ACQ-0018
     RDKit          3D

 52 55  0  0  0  0  0  0  0  0999 V2000
  201.8896  176.4345  156.7090 F   0  0  0  0  0  0  0  0  0  0  0  0
  201.1667  177.4313  156.1364 C   0  0  0  0  0  0  0  0  0  0  0  0
  201.1831  177.6012  154.7394 C   0  0  0  0  0  0  0  0  0  0  0  0
  200.4008  178.6122  154.1450 C   0  0  0  0  0  0  0  0  0  0  0  0
  199.6176  179.4922  154.9351 C   0  0  0  0  0  0  0  0  0  0  0  0
  199.6698  179.3580  156.3452 C   0  0  0  0  0  0  0  0  0  0  0  0
  200.4123  178.3125  156.9375 C   0  0  0  0  0  0  0  0  0  0  0  0
  198.7618  180.5134  154.3009 C   0  0  0  0  0  0  0  0  0  0  0  0
  199.1424  181.0476  153.1502 N   0  0  0  0  0  0  0  0  0  0  0  0
  198.1844  181.9364  152.7983 N   0  0  0  0  0  0  0  0  0  0  0  0
  198.2939  182.6988  151.5988 C   0  0  0  0  0  0  0  0  0  0  0  0
  197.1973  183.4627  151.1306 C   0  0  0  0  0  0  0  0  0  0  0  0
  197.3032  184.2179  149.9445 C   0  0  0  0  0  0  0  0  0  0  0  0
  198.5063  184.2179  149.2148 C   0  0  0  0  0  0  0  0  0  0  0  0
  199.6046  183.4628  149.6699 C   0  0  0  0  0  0  0  0  0  0  0  0
  199.4991  182.7078  150.8535 C   0  0  0  0  0  0  0  0  0  0  0  0
  197.1821  181.9565  153.7404 C   0  0  0  0  0  0  0  0  0  0  0  0
  197.5052  181.0590  154.7220 C   0  0  0  0  0  0  0  0  0  0  0  0
  196.6927  180.7015  155.9370 C   0  0  1  0  0  0  0  0  0  0  0  0
  196.1008  181.9200  156.5469 N   0  0  1  0  0  0  0  0  0  0  0  0
  195.8970  181.8357  158.0066 C   0  0  1  0  0  0  0  0  0  0  0  0
  195.9004  183.2152  158.6338 C   0  0  0  0  0  0  0  0  0  0  0  0
  197.0993  183.9595  158.7034 C   0  0  0  0  0  0  0  0  0  0  0  0
  197.1078  185.2373  159.2928 C   0  0  0  0  0  0  0  0  0  0  0  0
  198.2733  185.9461  159.3229 O   0  0  0  0  0  0  0  0  0  0  0  0
  195.9193  185.7745  159.8387 C   0  0  0  0  0  0  0  0  0  0  0  0
  194.7289  185.0232  159.7692 C   0  0  0  0  0  0  0  0  0  0  0  0
  194.7152  183.7548  159.1645 C   0  0  0  0  0  0  0  0  0  0  0  0
  195.9082  187.1440  160.4908 C   0  0  2  0  0  0  0  0  0  0  0  0
  196.7550  182.6701  156.3936 H   0  0  0  0  0  0  0  0  0  0  0  0
  201.8026  176.9559  154.1299 H   0  0  0  0  0  0  0  0  0  0  0  0
  200.4117  178.7108  153.0655 H   0  0  0  0  0  0  0  0  0  0  0  0
  199.1559  180.0338  156.9981 H   0  0  0  0  0  0  0  0  0  0  0  0
  200.3917  178.1925  158.0102 H   0  0  0  0  0  0  0  0  0  0  0  0
  196.2608  183.4786  151.6684 H   0  0  0  0  0  0  0  0  0  0  0  0
  196.4617  184.7968  149.5940 H   0  0  0  0  0  0  0  0  0  0  0  0
  198.5887  184.7955  148.3069 H   0  0  0  0  0  0  0  0  0  0  0  0
  200.5302  183.4609  149.1112 H   0  0  0  0  0  0  0  0  0  0  0  0
  200.3557  182.1381  151.1843 H   0  0  0  0  0  0  0  0  0  0  0  0
  196.3249  182.6073  153.6504 H   0  0  0  0  0  0  0  0  0  0  0  0
  195.9477  179.9659  155.6604 H   0  0  0  0  0  0  0  0  0  0  0  0
  197.2854  180.2085  156.6754 H   0  0  0  0  0  0  0  0  0  0  0  0
  194.9543  181.3308  158.2011 H   0  0  0  0  0  0  0  0  0  0  0  0
  196.6845  181.2689  158.5057 H   0  0  0  0  0  0  0  0  0  0  0  0
  198.0157  183.5563  158.2993 H   0  0  0  0  0  0  0  0  0  0  0  0
  198.1669  186.8162  159.6768 H   0  0  0  0  0  0  0  0  0  0  0  0
  193.8088  185.4238  160.1698 H   0  0  0  0  0  0  0  0  0  0  0  0
  193.7895  183.1956  159.1130 H   0  0  0  0  0  0  0  0  0  0  0  0
  194.9267  187.3820  160.9012 H   0  0  0  0  0  0  0  0  0  0  0  0
  196.1650  187.9166  159.7661 H   0  0  0  0  0  0  0  0  0  0  0  0
  196.6263  187.1811  161.3087 H   0  0  0  0  0  0  0  0  0  0  0  0
  195.2204  182.1990  156.1099 H   0  0  0  0  0  0  0  0  0  0  0  0
  1  2  1  0
  2  3  1  0
  2  7  2  0
  3  4  2  0
  3 31  1  0
  4  5  1  0
  4 32  1  0
  5  6  2  0
  5  8  1  0
  6  7  1  0
  6 33  1  0
  7 34  1  0
  8  9  2  0
  8 18  1  0
  9 10  1  0
 10 11  1  0
 10 17  1  0
 11 12  2  0
 11 16  1  0
 12 13  1  0
 12 35  1  0
 13 14  2  0
 13 36  1  0
 14 15  1  0
 14 37  1  0
 15 16  2  0
 15 38  1  0
 16 39  1  0
 17 18  2  0
 17 40  1  0
 18 19  1  0
 19 20  1  0
 19 41  1  6
 19 42  1  0
 20 21  1  0
 20 30  1  1
 20 52  1  0
 21 22  1  0
 21 43  1  6
 21 44  1  0
 22 23  2  0
 22 28  1  0
 23 24  1  0
 23 45  1  0
 24 25  1  0
 24 26  2  0
 25 46  1  0
 26 27  1  0
 26 29  1  0
 27 28  2  0
 27 47  1  0
 28 48  1  0
 29 49  1  1
 29 50  1  0
 29 51  1  0
M  CHG  1  20   1
M  END
>  <s_epik_cmdline>  (18) 
J2VwaWtfcHl0aG9uJywgJy1waCcsICc3LjAwMDAwMCcsICctcGh0JywgJzIuMDAwMDAwJywgJy1tcycsICcxNicsICctdG4nLCAnOCcsICctbWEnLCAnMjAwJywgJy1pbWFlJywgJzxpbmZpbGUubWFlPicsICctb21hZScsICc8b3V0ZmlsZS5tYWU+Jw==

>  <s_epik_input>  (18) 
RmMxW2NIXVtjSF1jKFtjSF1bY0hdMSktYzJubigtYzNbY0hdW2NIXVtjSF1bY0hdW2NIXTMpW2NIXWMyW0NIMl1bTkhdW0NIMl1jNFtjSF1jKFtPSF0pYyhbQ0gzXSlbY0hdW2NIXTQ=

>  <s_i_glide_gridfile>  (18) 
ATP-Grid

>  <s_lp_Force_Field>  (18) 
OPLS_2005

>  <s_lp_Variant>  (18) 
a4____241131____9264-1

>  <s_lp_label>  (18) 
450_sdstereoexpander_1_neutralizer_1_epik_1_stereoizer_1

>  <s_m_source_file>  (18) 
ATP-VSW-LIGPREP-002-in.maegz

>  <s_sd_BIOSOLVEIT.INFINISEE\_QUERY\_NAME>  (18) 
Ref-Lig

>  <s_sd_BIOSOLVEIT.INFINISEE\_QUERY\_SMILES>  (18) 
S(c1nc2c(cc1C[NH2+]Cc3ccc(cc3)C[NH+](C)C)cccc2)Cc4ccccc4

>  <s_sd_BIOSOLVEIT.INFINISEE\_REACTION\_NAME>  (18) 
a4

>  <s_sd_BIOSOLVEIT.INFINISEE\_REAGENT1\_SMILES>  (18) 
[R1*]NCC=1C(=NN(c2ccccc2)C1)c3ccc(F)cc3

>  <s_sd_BIOSOLVEIT.INFINISEE\_REAGENT2\_SMILES>  (18) 
[R1*]Cc1cc(O)c(cc1)C

>  <s_sd_BIOSOLVEIT.INFINISEE\_SPACE>  (18) 
FreedomSpace_5bn_2023-06

>  <s_vsw_compound_code>  (18) 
14370

>  <s_vsw_variant>  (18) 
14370-1

>  <r_epik_Charging_Adjusted_Penalty>  (18) 
0.17054924664982801

>  <r_epik_Ionization_Penalty>  (18) 
0.087300000000000003

>  <r_epik_Ionization_Penalty_Charging>  (18) 
0.085300000000000001

>  <r_epik_Ionization_Penalty_Neutral>  (18) 
0.002

>  <r_epik_State_Penalty>  (18) 
0.085300000000000001

>  <r_i_docking_score>  (18) 
-4.76204452470596

>  <r_i_glide_ecoul>  (18) 
-10.0300741195679

>  <r_i_glide_eff_state_penalty>  (18) 
0.085300000000000001

>  <r_i_glide_einternal>  (18) 
4.1353940963745099

>  <r_i_glide_emodel>  (18) 
-58.914069712881499

>  <r_i_glide_energy>  (18) 
-41.9241495132446

>  <r_i_glide_erotb>  (18) 
0.77472468987334497

>  <r_i_glide_esite>  (18) 
-0.103484473017644

>  <r_i_glide_evdw>  (18) 
-31.8940753936768

>  <r_i_glide_gscore>  (18) 
-4.8473445247059601

>  <r_i_glide_hbond>  (18) 
-0.20000000000000001

>  <r_i_glide_ligand_efficiency>  (18) 
-0.16420843188641199

>  <r_i_glide_ligand_efficiency_ln>  (18) 
-1.09038744112755

>  <r_i_glide_ligand_efficiency_sa>  (18) 
-0.50450032763784602

>  <r_i_glide_lipo>  (18) 
-1.45885160166992

>  <r_i_glide_metal>  (18) 
-0

>  <r_i_glide_rewards>  (18) 
-0.76051825227272596

>  <r_lp_Energy>  (18) 
12.459198000000001

>  <r_lp_tautomer_probability>  (18) 
0.999999999997365

>  <r_qp_ACxDN^.5/SA>  (18) 
0.0072002000000000003

>  <r_qp_CIQPlogS>  (18) 
-6.0030000000000001

>  <r_qp_EA(eV)>  (18) 
0.61299999999999999

>  <r_qp_FISA>  (18) 
65.915999999999997

>  <r_qp_FOSA>  (18) 
129.41200000000001

>  <r_qp_IP(eV)>  (18) 
8.8330000000000002

>  <r_qp_Jm>  (18) 
0.0125584315914389

>  <r_qp_PISA>  (18) 
412.83600000000001

>  <r_qp_PSA>  (18) 
49.710000000000001

>  <r_qp_PercentHumanOralAbsorption>  (18) 
100

>  <r_qp_QPPCaco>  (18) 
585.75800000000004

>  <r_qp_QPPMDCK>  (18) 
449.25

>  <r_qp_QPlogBB>  (18) 
0.13200000000000001

>  <r_qp_QPlogHERG>  (18) 
-6.5940000000000003

>  <r_qp_QPlogKhsa>  (18) 
0.95199999999999996

>  <r_qp_QPlogKp>  (18) 
-2.863

>  <r_qp_QPlogPC16>  (18) 
12.976000000000001

>  <r_qp_QPlogPo/w>  (18) 
4.851

>  <r_qp_QPlogPoct>  (18) 
19.132999999999999

>  <r_qp_QPlogPw>  (18) 
9.5500000000000007

>  <r_qp_QPlogS>  (18) 
-4.6269999999999998

>  <r_qp_QPpolrz>  (18) 
42.451000000000001

>  <r_qp_SASA>  (18) 
638.34400000000005

>  <r_qp_SAamideO>  (18) 
0

>  <r_qp_SAfluorine>  (18) 
30.18

>  <r_qp_WPSA>  (18) 
30.18

>  <r_qp_accptHB>  (18) 
3.25

>  <r_qp_dip^2/V>  (18) 
0.016679699999999999

>  <r_qp_dipole>  (18) 
4.4669999999999996

>  <r_qp_donorHB>  (18) 
2

>  <r_qp_glob>  (18) 
0.85372420000000004

>  <r_qp_mol_MW>  (18) 
387.45600000000002

>  <r_qp_volume>  (18) 
1196.2190000000001

>  <r_sd_BIOSOLVEIT.INFINISEE\_FTREES\_SIMILARITY>  (18) 
0.90600000000000003

>  <r_sd_BIOSOLVEIT.LOGP>  (18) 
3.9560200000000001

>  <r_sd_BIOSOLVEIT.MOLECULAR\_WEIGHT>  (18) 
388.464

>  <r_sd_BIOSOLVEIT.TPSA>  (18) 
54.659999999999997

>  <i_epik_Tot_Q>  (18) 
1

>  <i_epik_Tot_abs_Q>  (18) 
1

>  <i_f3d_flags>  (18) 
0

>  <i_i_glide_confnum>  (18) 
6

>  <i_i_glide_lignum>  (18) 
154

>  <i_i_glide_posenum>  (18) 
2

>  <i_i_glide_rotatable_bonds>  (18) 
7

>  <i_lp_mmshare_version>  (18) 
65135

>  <i_m_ct_format>  (18) 
2

>  <i_m_source_file_index>  (18) 
450

>  <i_qp_#NandO>  (18) 
4

>  <i_qp_#acid>  (18) 
0

>  <i_qp_#amide>  (18) 
0

>  <i_qp_#amidine>  (18) 
0

>  <i_qp_#amine>  (18) 
1

>  <i_qp_#in34>  (18) 
0

>  <i_qp_#in56>  (18) 
23

>  <i_qp_#metab>  (18) 
5

>  <i_qp_#nonHatm>  (18) 
29

>  <i_qp_#noncon>  (18) 
0

>  <i_qp_#ringatoms>  (18) 
23

>  <i_qp_#rotor>  (18) 
5

>  <i_qp_#rtvFG>  (18) 
0

>  <i_qp_#stars>  (18) 
0

>  <i_qp_CNS>  (18) 
1

>  <i_qp_HumanOralAbsorption>  (18) 
3

>  <i_qp_RuleOfFive>  (18) 
0

>  <i_qp_RuleOfThree>  (18) 
0

>  <i_sd_BIOSOLVEIT.INFINISEE\_REAGENT1\_NAME>  (18) 
241131

>  <i_sd_BIOSOLVEIT.INFINISEE\_REAGENT2\_NAME>  (18) 
9264

>  <i_sd_BIOSOLVEIT.INFINISEE\_RESULT\_RANK>  (18) 
62433

>  <i_sd_version>  (18) 
0

>  <b_lp_Chiralities_Consistent>  (18) 
1

>  <b_sd_chiral_flag>  (18) 
0

>  <acquisition_id>  (18) 
ATP-ACQ-0018

>  <canonical_id>  (18) 
ATP-HTVS-3E3A2065ACC9

>  <compound_code>  (18) 
14370

>  <title>  (18) 
a4____241131____9264

>  <variant>  (18) 
14370-1

>  <selection_arm>  (18) 
score_calibration

>  <priority>  (18) 
P0

>  <wave>  (18) 
1

>  <source_file>  (18) 
运行/运行/ATP-VSW/ATP-VSW-DOCK_HTVS_1-002_lib.maegz

>  <canonical_smiles>  (18) 
Cc1ccc(C[NH2+]Cc2cn(-c3ccccc3)nc2-c2ccc(F)cc2)cc1O

$$$$
ATP-ACQ-0019
     RDKit          3D

 55 57  0  0  0  0  0  0  0  0999 V2000
  197.3542  180.0368  154.2634 S   0  0  0  0  0  0  0  0  0  0  0  0
  197.4825  180.6462  152.6304 C   0  0  0  0  0  0  0  0  0  0  0  0
  197.6683  179.7220  151.5191 C   0  0  0  0  0  0  0  0  0  0  0  0
  197.1736  180.0486  150.2400 C   0  0  0  0  0  0  0  0  0  0  0  0
  197.3510  179.1661  149.1563 C   0  0  0  0  0  0  0  0  0  0  0  0
  198.0363  177.9441  149.3234 C   0  0  0  0  0  0  0  0  0  0  0  0
  198.2301  177.0240  148.1836 N   0  0  0  0  0  0  0  0  0  0  0  0
  198.6641  175.9003  148.4119 O   0  0  0  0  0  0  0  0  0  0  0  0
  197.9492  177.4391  147.0600 O   0  0  0  0  0  0  0  0  0  0  0  0
  198.5362  177.6193  150.6071 C   0  0  0  0  0  0  0  0  0  0  0  0
  198.3607  178.5053  151.6888 C   0  0  0  0  0  0  0  0  0  0  0  0
  197.3672  182.0117  152.5972 C   0  0  0  0  0  0  0  0  0  0  0  0
  197.1857  182.5849  153.8864 C   0  0  0  0  0  0  0  0  0  0  0  0
  197.1449  181.6481  154.8900 C   0  0  0  0  0  0  0  0  0  0  0  0
  197.0131  181.9158  156.3444 C   0  0  1  0  0  0  0  0  0  0  0  0
  195.6586  181.5828  156.8551 N   0  0  1  0  0  0  0  0  0  0  0  0
  195.4295  181.7647  158.3053 C   0  0  1  0  0  0  0  0  0  0  0  0
  195.7301  183.1826  158.8291 C   0  0  0  0  0  0  0  0  0  0  0  0
  197.0732  183.5597  159.0582 C   0  0  0  0  0  0  0  0  0  0  0  0
  197.3765  184.8703  159.5036 C   0  0  0  0  0  0  0  0  0  0  0  0
  196.3412  185.7682  159.7998 C   0  0  0  0  0  0  0  0  0  0  0  0
  195.0021  185.3723  159.6292 C   0  0  0  0  0  0  0  0  0  0  0  0
  194.6945  184.0965  159.1214 C   0  0  0  0  0  0  0  0  0  0  0  0
  196.6294  187.1694  160.2823 C   0  0  1  0  0  0  0  0  0  0  0  0
  196.7185  188.1739  159.1955 N   0  0  2  0  0  0  0  0  0  0  0  0
  197.7388  187.8718  158.1619 C   0  0  2  0  0  0  0  0  0  0  0  0
  196.8843  189.5421  159.7383 C   0  0  2  0  0  0  0  0  0  0  0  0
  194.0050  181.2739  158.6255 C   0  0  2  0  0  0  0  0  0  0  0  0
  194.9433  182.0863  156.3293 H   0  0  0  0  0  0  0  0  0  0  0  0
  196.6494  180.9790  150.0876 H   0  0  0  0  0  0  0  0  0  0  0  0
  196.9617  179.4400  148.1873 H   0  0  0  0  0  0  0  0  0  0  0  0
  199.0694  176.6929  150.7645 H   0  0  0  0  0  0  0  0  0  0  0  0
  198.7658  178.2429  152.6559 H   0  0  0  0  0  0  0  0  0  0  0  0
  197.4307  182.6245  151.7084 H   0  0  0  0  0  0  0  0  0  0  0  0
  197.0889  183.6510  154.0332 H   0  0  0  0  0  0  0  0  0  0  0  0
  197.7600  181.3506  156.9019 H   0  0  0  0  0  0  0  0  0  0  0  0
  197.2151  182.9746  156.4894 H   0  0  0  0  0  0  0  0  0  0  0  0
  196.1188  181.0972  158.8271 H   0  0  0  0  0  0  0  0  0  0  0  0
  197.8879  182.8790  158.8678 H   0  0  0  0  0  0  0  0  0  0  0  0
  198.4092  185.1600  159.6156 H   0  0  0  0  0  0  0  0  0  0  0  0
  194.1954  186.0428  159.8458 H   0  0  0  0  0  0  0  0  0  0  0  0
  193.6510  183.8686  158.9755 H   0  0  0  0  0  0  0  0  0  0  0  0
  195.8408  187.4649  160.9707 H   0  0  0  0  0  0  0  0  0  0  0  0
  197.5466  187.1653  160.8551 H   0  0  0  0  0  0  0  0  0  0  0  0
  198.7367  187.8390  158.5996 H   0  0  0  0  0  0  0  0  0  0  0  0
  197.7386  188.6319  157.3794 H   0  0  0  0  0  0  0  0  0  0  0  0
  197.5541  186.9194  157.6627 H   0  0  0  0  0  0  0  0  0  0  0  0
  197.8241  189.6310  160.2867 H   0  0  0  0  0  0  0  0  0  0  0  0
  196.0706  189.7902  160.4207 H   0  0  0  0  0  0  0  0  0  0  0  0
  196.8819  190.2817  158.9367 H   0  0  0  0  0  0  0  0  0  0  0  0
  193.9031  181.3214  159.7022 H   0  0  0  0  0  0  0  0  0  0  0  0
  193.8203  180.2369  158.3379 H   0  0  0  0  0  0  0  0  0  0  0  0
  193.2330  181.8692  158.1355 H   0  0  0  0  0  0  0  0  0  0  0  0
  195.8261  188.1646  158.7222 H   0  0  0  0  0  0  0  0  0  0  0  0
  195.5299  180.5778  156.7524 H   0  0  0  0  0  0  0  0  0  0  0  0
  1  2  1  0
  1 14  1  0
  2  3  1  0
  2 12  2  0
  3  4  1  0
  3 11  2  0
  4  5  2  0
  4 30  1  0
  5  6  1  0
  5 31  1  0
  6  7  1  0
  6 10  2  0
  7  8  1  0
  7  9  2  0
 10 11  1  0
 10 32  1  0
 11 33  1  0
 12 13  1  0
 12 34  1  0
 13 14  2  0
 13 35  1  0
 14 15  1  0
 15 16  1  0
 15 36  1  1
 15 37  1  0
 16 17  1  0
 16 29  1  6
 16 55  1  0
 17 18  1  0
 17 28  1  0
 17 38  1  1
 18 19  1  0
 18 23  2  0
 19 20  2  0
 19 39  1  0
 20 21  1  0
 20 40  1  0
 21 22  2  0
 21 24  1  0
 22 23  1  0
 22 41  1  0
 23 42  1  0
 24 25  1  0
 24 43  1  1
 24 44  1  0
 25 26  1  0
 25 27  1  0
 25 54  1  6
 26 45  1  1
 26 46  1  0
 26 47  1  0
 27 48  1  1
 27 49  1  0
 27 50  1  0
 28 51  1  1
 28 52  1  0
 28 53  1  0
M  CHG  4   7   1   8  -1  16   1  25   1
M  END
>  <s_epik_cmdline>  (19) 
J2VwaWtfcHl0aG9uJywgJy1waCcsICc3LjAwMDAwMCcsICctcGh0JywgJzIuMDAwMDAwJywgJy1tcycsICcxNicsICctdG4nLCAnOCcsICctbWEnLCAnMjAwJywgJy1pbWFlJywgJzxpbmZpbGUubWFlPicsICctb21hZScsICc8b3V0ZmlsZS5tYWU+Jw==

>  <s_epik_input>  (19) 
W08tXVtOK10oPU8pYyhbY0hdW2NIXTEpW2NIXVtjSF1jMS1jMnNjKFtjSF1bY0hdMilbQ0gyXVtOSF1bQ0BIXShbQ0gzXSljM1tjSF1bY0hdYyhbY0hdW2NIXTMpW0NIMl1OKFtDSDNdKVtDSDNd

>  <s_i_glide_gridfile>  (19) 
ATP-Grid

>  <s_lp_Force_Field>  (19) 
OPLS_2005

>  <s_lp_Variant>  (19) 
m_270004beb____23853920____7548658-1

>  <s_lp_label>  (19) 
1528_sdstereoexpander_1_neutralizer_1_epik_1_stereoizer_1

>  <s_m_source_file>  (19) 
ATP-VSW-LIGPREP-001-in.maegz

>  <s_sd_BIOSOLVEIT.INFINISEE\_QUERY\_NAME>  (19) 
Ref-Lig

>  <s_sd_BIOSOLVEIT.INFINISEE\_QUERY\_SMILES>  (19) 
S(c1nc2c(cc1C[NH2+]Cc3ccc(cc3)C[NH+](C)C)cccc2)Cc4ccccc4

>  <s_sd_BIOSOLVEIT.INFINISEE\_REACTION\_NAME>  (19) 
m_270004beb

>  <s_sd_BIOSOLVEIT.INFINISEE\_REAGENT1\_SMILES>  (19) 
[R1*]NC(c1ccc(cc1)CN(C)C)C

>  <s_sd_BIOSOLVEIT.INFINISEE\_REAGENT2\_SMILES>  (19) 
[R1*]CC=1SC(c2ccc([N+]([O-])=O)cc2)=CC1

>  <s_sd_BIOSOLVEIT.INFINISEE\_SPACE>  (19) 
REALSpace_44bn_2023-08

>  <s_vsw_compound_code>  (19) 
48865

>  <s_vsw_variant>  (19) 
48865-1

>  <r_epik_Charging_Adjusted_Penalty>  (19) 
0.27771382847655102

>  <r_epik_Ionization_Penalty>  (19) 
0.13919999999999999

>  <r_epik_Ionization_Penalty_Charging>  (19) 
0.13919999999999999

>  <r_epik_Ionization_Penalty_Neutral>  (19) 
0

>  <r_epik_State_Penalty>  (19) 
0.13850000000000001

>  <r_i_docking_score>  (19) 
-6.2837009351896898

>  <r_i_glide_ecoul>  (19) 
-13.430567741394

>  <r_i_glide_eff_state_penalty>  (19) 
0.13850000000000001

>  <r_i_glide_einternal>  (19) 
2.5059111118316699

>  <r_i_glide_emodel>  (19) 
-77.708544089105004

>  <r_i_glide_energy>  (19) 
-48.682250022888198

>  <r_i_glide_erotb>  (19) 
0.74322268203703001

>  <r_i_glide_esite>  (19) 
-0.096936023504967203

>  <r_i_glide_evdw>  (19) 
-35.251682281494098

>  <r_i_glide_gscore>  (19) 
-6.4222009351896903

>  <r_i_glide_hbond>  (19) 
-0.351174724379614

>  <r_i_glide_ligand_efficiency>  (19) 
-0.22441789054248901

>  <r_i_glide_ligand_efficiency_ln>  (19) 
-1.45046267331815

>  <r_i_glide_ligand_efficiency_sa>  (19) 
-0.68146489075599503

>  <r_i_glide_lipo>  (19) 
-1.7976335906091401

>  <r_i_glide_metal>  (19) 
-0

>  <r_i_glide_rewards>  (19) 
-1.14251000344919

>  <r_lp_Energy>  (19) 
16.462059

>  <r_qp_ACxDN^.5/SA>  (19) 
0.0071938000000000002

>  <r_qp_CIQPlogS>  (19) 
-4.3810000000000002

>  <r_qp_EA(eV)>  (19) 
1.536

>  <r_qp_FISA>  (19) 
110.886

>  <r_qp_FOSA>  (19) 
261.35399999999998

>  <r_qp_IP(eV)>  (19) 
9.109

>  <r_qp_Jm>  (19) 
0.00071185762238452205

>  <r_qp_PISA>  (19) 
232.119

>  <r_qp_PSA>  (19) 
62.805

>  <r_qp_PercentHumanOralAbsorption>  (19) 
78.841999999999999

>  <r_qp_QPPCaco>  (19) 
54.722000000000001

>  <r_qp_QPPMDCK>  (19) 
34.216999999999999

>  <r_qp_QPlogBB>  (19) 
0.032000000000000001

>  <r_qp_QPlogHERG>  (19) 
-6.0650000000000004

>  <r_qp_QPlogKhsa>  (19) 
0.75800000000000001

>  <r_qp_QPlogKp>  (19) 
-6.1989999999999998

>  <r_qp_QPlogPC16>  (19) 
12.298999999999999

>  <r_qp_QPlogPo/w>  (19) 
3.5499999999999998

>  <r_qp_QPlogPoct>  (19) 
18.132000000000001

>  <r_qp_QPlogPw>  (19) 
7.9180000000000001

>  <r_qp_QPlogS>  (19) 
-2.5459999999999998

>  <r_qp_QPpolrz>  (19) 
40.005000000000003

>  <r_qp_SASA>  (19) 
625.53999999999996

>  <r_qp_SAamideO>  (19) 
0

>  <r_qp_SAfluorine>  (19) 
0

>  <r_qp_WPSA>  (19) 
21.18

>  <r_qp_accptHB>  (19) 
4.5

>  <r_qp_dip^2/V>  (19) 
0.069368299999999994

>  <r_qp_dipole>  (19) 
9.1630000000000003

>  <r_qp_donorHB>  (19) 
1

>  <r_qp_glob>  (19) 
0.87803489999999995

>  <r_qp_mol_MW>  (19) 
395.51799999999997

>  <r_qp_volume>  (19) 
1210.326

>  <r_sd_BIOSOLVEIT.INFINISEE\_FTREES\_SIMILARITY>  (19) 
0.90700000000000003

>  <r_sd_BIOSOLVEIT.LOGP>  (19) 
2.7924000000000002

>  <r_sd_BIOSOLVEIT.MOLECULAR\_WEIGHT>  (19) 
397.53899999999999

>  <r_sd_BIOSOLVEIT.TPSA>  (19) 
66.870000000000005

>  <i_epik_Tot_Q>  (19) 
2

>  <i_epik_Tot_abs_Q>  (19) 
4

>  <i_f3d_flags>  (19) 
0

>  <i_i_glide_confnum>  (19) 
4

>  <i_i_glide_lignum>  (19) 
399

>  <i_i_glide_posenum>  (19) 
9

>  <i_i_glide_rotatable_bonds>  (19) 
8

>  <i_lp_mmshare_version>  (19) 
65135

>  <i_m_ct_format>  (19) 
2

>  <i_m_source_file_index>  (19) 
1528

>  <i_qp_#NandO>  (19) 
5

>  <i_qp_#acid>  (19) 
0

>  <i_qp_#amide>  (19) 
0

>  <i_qp_#amidine>  (19) 
0

>  <i_qp_#amine>  (19) 
2

>  <i_qp_#in34>  (19) 
0

>  <i_qp_#in56>  (19) 
17

>  <i_qp_#metab>  (19) 
7

>  <i_qp_#nonHatm>  (19) 
28

>  <i_qp_#noncon>  (19) 
0

>  <i_qp_#ringatoms>  (19) 
17

>  <i_qp_#rotor>  (19) 
7

>  <i_qp_#rtvFG>  (19) 
0

>  <i_qp_#stars>  (19) 
0

>  <i_qp_CNS>  (19) 
1

>  <i_qp_HumanOralAbsorption>  (19) 
2

>  <i_qp_RuleOfFive>  (19) 
0

>  <i_qp_RuleOfThree>  (19) 
1

>  <i_sd_BIOSOLVEIT.INFINISEE\_REAGENT1\_NAME>  (19) 
23853920

>  <i_sd_BIOSOLVEIT.INFINISEE\_REAGENT2\_NAME>  (19) 
7548658

>  <i_sd_BIOSOLVEIT.INFINISEE\_RESULT\_RANK>  (19) 
61087

>  <i_sd_version>  (19) 
0

>  <b_lp_Chiralities_Consistent>  (19) 
1

>  <b_sd_chiral_flag>  (19) 
0

>  <acquisition_id>  (19) 
ATP-ACQ-0019

>  <canonical_id>  (19) 
ATP-HTVS-60D4F7FF4B6B

>  <compound_code>  (19) 
48865

>  <title>  (19) 
m_270004beb____23853920____7548658

>  <variant>  (19) 
48865-1

>  <selection_arm>  (19) 
exploitation

>  <priority>  (19) 
P0

>  <wave>  (19) 
1

>  <source_file>  (19) 
运行/运行/ATP-VSW/ATP-VSW-DOCK_HTVS_1-001_lib/ATP-VSW-DOCK_HTVS_1-001_lib

>  <canonical_smiles>  (19) 
C[C@@H]([NH2+]Cc1ccc(-c2ccc([N+](=O)[O-])cc2)s1)c1ccc(C[NH+](C)C)cc1

$$$$
ATP-ACQ-0020
     RDKit          3D

 62 65  0  0  0  0  0  0  0  0999 V2000
  196.8098  185.7171  157.2485 N   0  0  0  0  0  0  0  0  0  0  0  0
  197.9152  185.4098  156.5599 C   0  0  0  0  0  0  0  0  0  0  0  0
  198.8611  186.2545  156.2365 N   0  0  0  0  0  0  0  0  0  0  0  0
  198.7129  187.5320  156.6686 C   0  0  0  0  0  0  0  0  0  0  0  0
  197.6589  187.8935  157.5694 C   0  0  0  0  0  0  0  0  0  0  0  0
  196.7467  186.8923  157.8898 C   0  0  0  0  0  0  0  0  0  0  0  0
  195.7512  187.0610  158.8898 N   0  0  0  0  0  0  0  0  0  0  0  0
  195.2703  185.9830  159.7752 C   0  0  1  0  0  0  0  0  0  0  0  0
  195.6960  184.5424  159.4793 C   0  0  0  0  0  0  0  0  0  0  0  0
  194.7733  183.5652  159.0214 C   0  0  0  0  0  0  0  0  0  0  0  0
  193.4112  183.8214  158.9225 N   0  0  0  0  0  0  0  0  0  0  0  0
  195.2334  182.2816  158.6854 C   0  0  0  0  0  0  0  0  0  0  0  0
  196.6010  181.9569  158.8108 C   0  0  0  0  0  0  0  0  0  0  0  0
  197.5392  182.9616  159.1366 C   0  0  0  0  0  0  0  0  0  0  0  0
  197.0754  184.2139  159.5440 C   0  0  0  0  0  0  0  0  0  0  0  0
  195.6562  186.2909  161.2203 C   0  0  2  0  0  0  0  0  0  0  0  0
  197.5518  189.2130  158.0624 C   0  0  0  0  0  0  0  0  0  0  0  0
  198.4545  190.1859  157.6211 C   0  0  0  0  0  0  0  0  0  0  0  0
  199.4771  189.8447  156.7147 C   0  0  0  0  0  0  0  0  0  0  0  0
  199.5953  188.5200  156.2497 C   0  0  0  0  0  0  0  0  0  0  0  0
  198.0719  184.0945  156.1639 N   0  0  0  0  0  0  0  0  0  0  0  0
  196.9199  183.2444  155.9525 C   0  0  1  0  0  0  0  0  0  0  0  0
  197.0921  182.0986  155.0153 C   0  0  0  0  0  0  0  0  0  0  0  0
  197.4663  180.7854  155.4053 C   0  0  0  0  0  0  0  0  0  0  0  0
  197.5721  179.7770  154.4292 C   0  0  0  0  0  0  0  0  0  0  0  0
  197.3048  180.0727  153.0776 C   0  0  0  0  0  0  0  0  0  0  0  0
  197.4085  179.0409  152.1339 N   0  0  0  0  0  0  0  0  0  0  0  0
  197.1165  179.2339  150.7151 C   0  0  2  0  0  0  0  0  0  0  0  0
  198.1551  180.1497  150.0532 C   0  0  2  0  0  0  0  0  0  0  0  0
  195.6638  179.6925  150.4751 C   0  0  2  0  0  0  0  0  0  0  0  0
  196.9448  181.4030  152.7448 C   0  0  0  0  0  0  0  0  0  0  0  0
  196.8111  182.3906  153.6978 C   0  0  0  0  0  0  0  0  0  0  0  0
  195.6814  187.9893  159.2811 H   0  0  0  0  0  0  0  0  0  0  0  0
  194.1834  186.0473  159.7345 H   0  0  0  0  0  0  0  0  0  0  0  0
  192.7827  183.1638  158.5128 H   0  0  0  0  0  0  0  0  0  0  0  0
  193.0484  184.7793  159.0432 H   0  0  0  0  0  0  0  0  0  0  0  0
  194.5564  181.5589  158.2413 H   0  0  0  0  0  0  0  0  0  0  0  0
  196.9537  181.0479  158.3539 H   0  0  0  0  0  0  0  0  0  0  0  0
  198.5917  182.8210  158.9156 H   0  0  0  0  0  0  0  0  0  0  0  0
  197.7987  185.0083  159.6643 H   0  0  0  0  0  0  0  0  0  0  0  0
  195.2451  185.5262  161.8773 H   0  0  0  0  0  0  0  0  0  0  0  0
  195.2873  187.2550  161.5580 H   0  0  0  0  0  0  0  0  0  0  0  0
  196.7406  186.2843  161.3346 H   0  0  0  0  0  0  0  0  0  0  0  0
  196.7549  189.4926  158.7412 H   0  0  0  0  0  0  0  0  0  0  0  0
  198.3623  191.2024  157.9746 H   0  0  0  0  0  0  0  0  0  0  0  0
  200.1746  190.5881  156.3841 H   0  0  0  0  0  0  0  0  0  0  0  0
  200.3835  188.2538  155.5620 H   0  0  0  0  0  0  0  0  0  0  0  0
  198.8562  183.8869  155.5733 H   0  0  0  0  0  0  0  0  0  0  0  0
  196.7568  182.6926  156.8034 H   0  0  0  0  0  0  0  0  0  0  0  0
  195.9751  183.7711  155.8710 H   0  0  0  0  0  0  0  0  0  0  0  0
  197.6722  180.5203  156.4314 H   0  0  0  0  0  0  0  0  0  0  0  0
  197.8655  178.7755  154.7150 H   0  0  0  0  0  0  0  0  0  0  0  0
  197.7237  178.1352  152.4401 H   0  0  0  0  0  0  0  0  0  0  0  0
  197.2176  178.2549  150.2374 H   0  0  0  0  0  0  0  0  0  0  0  0
  197.9561  180.2648  148.9906 H   0  0  0  0  0  0  0  0  0  0  0  0
  199.1641  179.7619  150.1836 H   0  0  0  0  0  0  0  0  0  0  0  0
  198.1621  181.1478  150.4726 H   0  0  0  0  0  0  0  0  0  0  0  0
  195.4544  179.8132  149.4171 H   0  0  0  0  0  0  0  0  0  0  0  0
  195.4206  180.6532  150.8975 H   0  0  0  0  0  0  0  0  0  0  0  0
  194.9424  179.0208  150.9298 H   0  0  0  0  0  0  0  0  0  0  0  0
  196.7611  181.7663  151.7617 H   0  0  0  0  0  0  0  0  0  0  0  0
  196.4973  183.3894  153.4278 H   0  0  0  0  0  0  0  0  0  0  0  0
  1  2  2  0
  1  6  1  0
  2  3  1  0
  2 21  1  0
  3  4  2  0
  4  5  1  0
  4 20  1  0
  5  6  2  0
  5 17  1  0
  6  7  1  0
  7  8  1  0
  7 33  1  0
  8  9  1  0
  8 16  1  0
  8 34  1  1
  9 10  1  0
  9 15  2  0
 10 11  1  0
 10 12  2  0
 11 35  1  0
 11 36  1  0
 12 13  1  0
 12 37  1  0
 13 14  2  0
 13 38  1  0
 14 15  1  0
 14 39  1  0
 15 40  1  0
 16 41  1  1
 16 42  1  0
 16 43  1  0
 17 18  2  0
 17 44  1  0
 18 19  1  0
 18 45  1  0
 19 20  2  0
 19 46  1  0
 20 47  1  0
 21 22  1  0
 21 48  1  0
 22 23  1  0
 22 49  1  1
 22 50  1  0
 23 24  1  0
 23 32  2  0
 24 25  2  0
 24 51  1  0
 25 26  1  0
 25 52  1  0
 26 27  1  0
 26 31  2  0
 27 28  1  0
 27 53  1  0
 28 29  1  0
 28 30  1  0
 28 54  1  6
 29 55  1  6
 29 56  1  0
 29 57  1  0
 30 58  1  6
 30 59  1  0
 30 60  1  0
 31 32  1  0
 31 61  1  0
 32 62  1  0
M  END
>  <s_epik_cmdline>  (20) 
J2VwaWtfcHl0aG9uJywgJy1waCcsICc3LjAwMDAwMCcsICctcGh0JywgJzIuMDAwMDAwJywgJy1tcycsICcxNicsICctdG4nLCAnOCcsICctbWEnLCAnMjAwJywgJy1pbWFlJywgJzxpbmZpbGUubWFlPicsICctb21hZScsICc8b3V0ZmlsZS5tYWU+Jw==

>  <s_epik_input>  (20) 
W2NIXTFbY0hdW2NIXVtjSF1jKFtOSDJdKWMxW0NAQEhdKFtDSDNdKVtOSF1jKGMoYzIzKVtjSF1bY0hdW2NIXVtjSF0zKW5jKG4yKVtOSF1bQ0gyXWM0W2NIXVtjSF1jKFtjSF1bY0hdNClbTkhdW0NIXShbQ0gzXSlbQ0gzXQ==

>  <s_i_glide_gridfile>  (20) 
ATP-Grid

>  <s_lp_Force_Field>  (20) 
OPLS_2005

>  <s_lp_Variant>  (20) 
m_282030aaa____21899824____22360182____21952560-5

>  <s_lp_label>  (20) 
1189_sdstereoexpander_1_neutralizer_1_epik_3_stereoizer_1

>  <s_m_source_file>  (20) 
ATP-VSW-LIGPREP-001-in.maegz

>  <s_sd_BIOSOLVEIT.INFINISEE\_QUERY\_NAME>  (20) 
Ref-Lig

>  <s_sd_BIOSOLVEIT.INFINISEE\_QUERY\_SMILES>  (20) 
S(c1nc2c(cc1C[NH2+]Cc3ccc(cc3)C[NH+](C)C)cccc2)Cc4ccccc4

>  <s_sd_BIOSOLVEIT.INFINISEE\_REACTION\_NAME>  (20) 
m_282030aaa

>  <s_sd_BIOSOLVEIT.INFINISEE\_REAGENT1\_SMILES>  (20) 
[R1*]NCc1ccc(NC(C)C)cc1

>  <s_sd_BIOSOLVEIT.INFINISEE\_REAGENT2\_SMILES>  (20) 
[R2*]c1nc([R1*])c2c(n1)cccc2

>  <s_sd_BIOSOLVEIT.INFINISEE\_REAGENT3\_SMILES>  (20) 
[R2*]NC(c1c(N)cccc1)C

>  <s_sd_BIOSOLVEIT.INFINISEE\_SPACE>  (20) 
REALSpace_44bn_2023-08

>  <s_vsw_compound_code>  (20) 
38017

>  <s_vsw_variant>  (20) 
38017-5

>  <r_epik_Charging_Adjusted_Penalty>  (20) 
2.0998165687234902

>  <r_epik_Ionization_Penalty>  (20) 
2.3083999999999998

>  <r_epik_Ionization_Penalty_Charging>  (20) 
0

>  <r_epik_Ionization_Penalty_Neutral>  (20) 
2.3083999999999998

>  <r_epik_State_Penalty>  (20) 
2.0998000000000001

>  <r_i_docking_score>  (20) 
-1.7497014366516599

>  <r_i_glide_ecoul>  (20) 
-2.6792397499084499

>  <r_i_glide_eff_state_penalty>  (20) 
2.0998000000000001

>  <r_i_glide_einternal>  (20) 
2.8902540206909202

>  <r_i_glide_emodel>  (20) 
-47.105484918238503

>  <r_i_glide_energy>  (20) 
-38.602095127105699

>  <r_i_glide_erotb>  (20) 
0.76355864327071998

>  <r_i_glide_esite>  (20) 
-0.020551725738210201

>  <r_i_glide_evdw>  (20) 
-35.922855377197301

>  <r_i_glide_gscore>  (20) 
-3.8495014366516598

>  <r_i_glide_hbond>  (20) 
0

>  <r_i_glide_ligand_efficiency>  (20) 
-0.054678169895364302

>  <r_i_glide_ligand_efficiency_ln>  (20) 
-0.39180584672611501

>  <r_i_glide_ligand_efficiency_sa>  (20) 
-0.17359236862265301

>  <r_i_glide_lipo>  (20) 
-1.85846931996974

>  <r_i_glide_metal>  (20) 
-0

>  <r_i_glide_rewards>  (20) 
-0.53601030286829598

>  <r_lp_Energy>  (20) 
13.988111999999999

>  <r_qp_ACxDN^.5/SA>  (20) 
0.015579600000000001

>  <r_qp_CIQPlogS>  (20) 
-6.8140000000000001

>  <r_qp_EA(eV)>  (20) 
0.63600000000000001

>  <r_qp_FISA>  (20) 
82.471000000000004

>  <r_qp_FOSA>  (20) 
276.56700000000001

>  <r_qp_IP(eV)>  (20) 
7.8860000000000001

>  <r_qp_Jm>  (20) 
0.63503239663540201

>  <r_qp_PISA>  (20) 
321.76299999999998

>  <r_qp_PSA>  (20) 
77.289000000000001

>  <r_qp_PercentHumanOralAbsorption>  (20) 
100

>  <r_qp_QPPCaco>  (20) 
1636.165

>  <r_qp_QPPMDCK>  (20) 
842.30999999999995

>  <r_qp_QPlogBB>  (20) 
-0.71099999999999997

>  <r_qp_QPlogHERG>  (20) 
-5.2220000000000004

>  <r_qp_QPlogKhsa>  (20) 
0.65500000000000003

>  <r_qp_QPlogKp>  (20) 
-1.042

>  <r_qp_QPlogPC16>  (20) 
14.555

>  <r_qp_QPlogPo/w>  (20) 
4.8010000000000002

>  <r_qp_QPlogPoct>  (20) 
24.285

>  <r_qp_QPlogPw>  (20) 
13.638

>  <r_qp_QPlogS>  (20) 
-4.7850000000000001

>  <r_qp_QPpolrz>  (20) 
45.082999999999998

>  <r_qp_SASA>  (20) 
680.80100000000004

>  <r_qp_SAamideO>  (20) 
0

>  <r_qp_SAfluorine>  (20) 
0

>  <r_qp_WPSA>  (20) 
0

>  <r_qp_accptHB>  (20) 
5

>  <r_qp_dip^2/V>  (20) 
0.0081613999999999992

>  <r_qp_dipole>  (20) 
3.3170000000000002

>  <r_qp_donorHB>  (20) 
4.5

>  <r_qp_glob>  (20) 
0.86680120000000005

>  <r_qp_mol_MW>  (20) 
426.56299999999999

>  <r_qp_volume>  (20) 
1347.912

>  <r_sd_BIOSOLVEIT.INFINISEE\_FTREES\_SIMILARITY>  (20) 
0.91200000000000003

>  <r_sd_BIOSOLVEIT.LOGP>  (20) 
5.8174999999999999

>  <r_sd_BIOSOLVEIT.MOLECULAR\_WEIGHT>  (20) 
426.565

>  <r_sd_BIOSOLVEIT.TPSA>  (20) 
87.890000000000001

>  <i_epik_Tot_Q>  (20) 
0

>  <i_epik_Tot_abs_Q>  (20) 
0

>  <i_f3d_flags>  (20) 
0

>  <i_i_glide_confnum>  (20) 
9

>  <i_i_glide_lignum>  (20) 
302

>  <i_i_glide_posenum>  (20) 
7

>  <i_i_glide_rotatable_bonds>  (20) 
8

>  <i_lp_mmshare_version>  (20) 
65135

>  <i_m_ct_format>  (20) 
2

>  <i_m_source_file_index>  (20) 
1189

>  <i_qp_#NandO>  (20) 
6

>  <i_qp_#acid>  (20) 
0

>  <i_qp_#amide>  (20) 
0

>  <i_qp_#amidine>  (20) 
0

>  <i_qp_#amine>  (20) 
0

>  <i_qp_#in34>  (20) 
0

>  <i_qp_#in56>  (20) 
22

>  <i_qp_#metab>  (20) 
8

>  <i_qp_#nonHatm>  (20) 
32

>  <i_qp_#noncon>  (20) 
0

>  <i_qp_#ringatoms>  (20) 
22

>  <i_qp_#rotor>  (20) 
9

>  <i_qp_#rtvFG>  (20) 
0

>  <i_qp_#stars>  (20) 
1

>  <i_qp_CNS>  (20) 
-1

>  <i_qp_HumanOralAbsorption>  (20) 
3

>  <i_qp_RuleOfFive>  (20) 
0

>  <i_qp_RuleOfThree>  (20) 
1

>  <i_sd_BIOSOLVEIT.INFINISEE\_REAGENT1\_NAME>  (20) 
21899824

>  <i_sd_BIOSOLVEIT.INFINISEE\_REAGENT2\_NAME>  (20) 
22360182

>  <i_sd_BIOSOLVEIT.INFINISEE\_REAGENT3\_NAME>  (20) 
21952560

>  <i_sd_BIOSOLVEIT.INFINISEE\_RESULT\_RANK>  (20) 
39478

>  <i_sd_version>  (20) 
0

>  <b_lp_Chiralities_Consistent>  (20) 
1

>  <b_sd_chiral_flag>  (20) 
0

>  <acquisition_id>  (20) 
ATP-ACQ-0020

>  <canonical_id>  (20) 
ATP-HTVS-BE963CFE3042

>  <compound_code>  (20) 
38017

>  <title>  (20) 
m_282030aaa____21899824____22360182____21952560

>  <variant>  (20) 
38017-5

>  <selection_arm>  (20) 
descriptor_diversity

>  <priority>  (20) 
P0

>  <wave>  (20) 
1

>  <source_file>  (20) 
运行/运行/ATP-VSW/ATP-VSW-DOCK_HTVS_1-001_lib/ATP-VSW-DOCK_HTVS_1-001_lib

>  <canonical_smiles>  (20) 
CC(C)Nc1ccc(CNc2nc(N[C@H](C)c3ccccc3N)c3ccccc3n2)cc1

$$$$
ATP-ACQ-0021
     RDKit          3D

 53 56  0  0  0  0  0  0  0  0999 V2000
  197.9147  187.4717  159.4328 F   0  0  0  0  0  0  0  0  0  0  0  0
  197.2362  186.3441  159.1253 C   0  0  0  0  0  0  0  0  0  0  0  0
  197.8553  185.3355  158.3508 C   0  0  0  0  0  0  0  0  0  0  0  0
  197.1460  184.1560  158.0253 C   0  0  0  0  0  0  0  0  0  0  0  0
  195.8163  184.0116  158.4967 C   0  0  0  0  0  0  0  0  0  0  0  0
  195.2044  185.0134  159.2583 C   0  0  0  0  0  0  0  0  0  0  0  0
  195.9107  186.1802  159.5752 C   0  0  0  0  0  0  0  0  0  0  0  0
  197.8420  183.0804  157.1880 C   0  0  1  0  0  0  0  0  0  0  0  0
  197.3059  181.6581  157.4240 C   0  0  1  0  0  0  0  0  0  0  0  0
  196.0292  181.4396  156.7322 N   0  0  2  0  0  0  0  0  0  0  0  0
  198.1802  180.5885  156.9258 C   0  0  0  0  0  0  0  0  0  0  0  0
  198.9017  179.6630  156.5968 C   0  0  0  0  0  0  0  0  0  0  0  0
  199.7629  178.5688  156.1612 C   0  0  0  0  0  0  0  0  0  0  0  0
  199.9945  178.2846  154.7928 C   0  0  0  0  0  0  0  0  0  0  0  0
  199.3429  179.0397  153.7841 N   0  0  0  0  0  0  0  0  0  0  0  0
  199.5744  180.3352  153.5138 C   0  0  0  0  0  0  0  0  0  0  0  0
  200.4772  180.9926  154.0340 O   0  0  0  0  0  0  0  0  0  0  0  0
  198.5885  180.9879  152.5929 C   0  0  0  0  0  0  0  0  0  0  0  0
  197.9180  180.2351  151.5982 C   0  0  0  0  0  0  0  0  0  0  0  0
  196.9932  180.8638  150.7398 C   0  0  0  0  0  0  0  0  0  0  0  0
  196.3169  180.0731  149.7315 C   0  0  0  0  0  0  0  0  0  0  0  0
  195.7812  179.4374  148.9289 N   0  0  0  0  0  0  0  0  0  0  0  0
  196.7461  182.2438  150.8499 C   0  0  0  0  0  0  0  0  0  0  0  0
  197.4137  182.9999  151.8297 C   0  0  0  0  0  0  0  0  0  0  0  0
  198.3390  182.3762  152.6879 C   0  0  0  0  0  0  0  0  0  0  0  0
  200.8099  177.1692  154.4673 C   0  0  0  0  0  0  0  0  0  0  0  0
  201.3896  176.4163  155.5267 C   0  0  0  0  0  0  0  0  0  0  0  0
  201.1409  176.6886  156.8251 N   0  0  0  0  0  0  0  0  0  0  0  0
  200.3573  177.7412  157.1292 C   0  0  0  0  0  0  0  0  0  0  0  0
  202.2390  175.3372  155.2114 C   0  0  0  0  0  0  0  0  0  0  0  0
  202.5260  175.0043  153.8743 C   0  0  0  0  0  0  0  0  0  0  0  0
  201.9429  175.7439  152.8306 C   0  0  0  0  0  0  0  0  0  0  0  0
  201.0866  176.8239  153.1216 C   0  0  0  0  0  0  0  0  0  0  0  0
  195.7398  180.4811  157.0236 H   0  0  0  0  0  0  0  0  0  0  0  0
  196.1406  181.4805  155.7368 H   0  0  0  0  0  0  0  0  0  0  0  0
  198.8766  185.4816  158.0165 H   0  0  0  0  0  0  0  0  0  0  0  0
  195.1911  183.1618  158.3068 H   0  0  0  0  0  0  0  0  0  0  0  0
  194.1835  184.8671  159.5732 H   0  0  0  0  0  0  0  0  0  0  0  0
  195.4281  186.9519  160.1581 H   0  0  0  0  0  0  0  0  0  0  0  0
  197.7513  183.3307  156.1302 H   0  0  0  0  0  0  0  0  0  0  0  0
  198.9116  183.1099  157.4099 H   0  0  0  0  0  0  0  0  0  0  0  0
  197.1813  181.4729  158.4899 H   0  0  0  0  0  0  0  0  0  0  0  0
  198.6388  178.5610  153.2425 H   0  0  0  0  0  0  0  0  0  0  0  0
  198.0960  179.1702  151.4881 H   0  0  0  0  0  0  0  0  0  0  0  0
  196.0537  182.7260  150.1787 H   0  0  0  0  0  0  0  0  0  0  0  0
  197.2275  184.0573  151.9102 H   0  0  0  0  0  0  0  0  0  0  0  0
  198.8436  182.9662  153.4368 H   0  0  0  0  0  0  0  0  0  0  0  0
  200.1877  177.9165  158.1856 H   0  0  0  0  0  0  0  0  0  0  0  0
  202.6913  174.7738  156.0132 H   0  0  0  0  0  0  0  0  0  0  0  0
  203.1945  174.1808  153.6534 H   0  0  0  0  0  0  0  0  0  0  0  0
  202.1733  175.4938  151.8040 H   0  0  0  0  0  0  0  0  0  0  0  0
  200.6655  177.3823  152.3008 H   0  0  0  0  0  0  0  0  0  0  0  0
  195.3141  182.0946  157.0084 H   0  0  0  0  0  0  0  0  0  0  0  0
  1  2  1  0
  2  3  2  0
  2  7  1  0
  3  4  1  0
  3 36  1  0
  4  5  2  0
  4  8  1  0
  5  6  1  0
  5 37  1  0
  6  7  2  0
  6 38  1  0
  7 39  1  0
  8  9  1  0
  8 40  1  6
  8 41  1  0
  9 10  1  0
  9 11  1  0
  9 42  1  1
 10 34  1  6
 10 35  1  0
 10 53  1  0
 11 12  3  0
 12 13  1  0
 13 14  2  0
 13 29  1  0
 14 15  1  0
 14 26  1  0
 15 16  1  0
 15 43  1  0
 16 17  2  0
 16 18  1  0
 18 19  1  0
 18 25  2  0
 19 20  2  0
 19 44  1  0
 20 21  1  0
 20 23  1  0
 21 22  3  0
 23 24  2  0
 23 45  1  0
 24 25  1  0
 24 46  1  0
 25 47  1  0
 26 27  1  0
 26 33  2  0
 27 28  1  0
 27 30  2  0
 28 29  2  0
 29 48  1  0
 30 31  1  0
 30 49  1  0
 31 32  2  0
 31 50  1  0
 32 33  1  0
 32 51  1  0
 33 52  1  0
M  CHG  1  10   1
M  END
>  <s_epik_cmdline>  (21) 
J2VwaWtfcHl0aG9uJywgJy1waCcsICc3LjAwMDAwMCcsICctcGh0JywgJzIuMDAwMDAwJywgJy1tcycsICcxNicsICctdG4nLCAnOCcsICctbWEnLCAnMjAwJywgJy1pbWFlJywgJzxpbmZpbGUubWFlPicsICctb21hZScsICc8b3V0ZmlsZS5tYWU+Jw==

>  <s_epik_input>  (21) 
RmMxW2NIXWMoW2NIXVtjSF1bY0hdMSlbQ0gyXVtDQEBIXShbTkgyXSlDI0NjKFtjSF1uYyhjMjMpW2NIXVtjSF1bY0hdW2NIXTMpYzJbTkhdQyg9TyljNFtjSF1jKEMjTilbY0hdW2NIXVtjSF00

>  <s_i_glide_gridfile>  (21) 
ATP-Grid

>  <s_lp_Force_Field>  (21) 
OPLS_2005

>  <s_lp_Variant>  (21) 
rxn503b____EMOL483931____EMOL13728749____EMOL313110234-3

>  <s_lp_label>  (21) 
3042_sdstereoexpander_1_neutralizer_1_epik_2_stereoizer_1

>  <s_m_source_file>  (21) 
ATP-VSW-LIGPREP-002-in.maegz

>  <s_sd_BIOSOLVEIT.INFINISEE\_QUERY\_NAME>  (21) 
Ref-Lig

>  <s_sd_BIOSOLVEIT.INFINISEE\_QUERY\_SMILES>  (21) 
S(c1nc2c(cc1C[NH2+]Cc3ccc(cc3)C[NH+](C)C)cccc2)Cc4ccccc4

>  <s_sd_BIOSOLVEIT.INFINISEE\_REACTION\_NAME>  (21) 
rxn503b

>  <s_sd_BIOSOLVEIT.INFINISEE\_REAGENT1\_NAME>  (21) 
EMOL483931

>  <s_sd_BIOSOLVEIT.INFINISEE\_REAGENT1\_SMILES>  (21) 
O=C(O)c1cc(C#N)ccc1

>  <s_sd_BIOSOLVEIT.INFINISEE\_REAGENT2\_NAME>  (21) 
EMOL13728749

>  <s_sd_BIOSOLVEIT.INFINISEE\_REAGENT2\_SMILES>  (21) 
Brc1c(N)c2c(nc1)cccc2

>  <s_sd_BIOSOLVEIT.INFINISEE\_REAGENT3\_NAME>  (21) 
EMOL313110234

>  <s_sd_BIOSOLVEIT.INFINISEE\_REAGENT3\_SMILES>  (21) 
Fc1cc(ccc1)CC(N)C#C

>  <s_sd_BIOSOLVEIT.INFINISEE\_SPACE>  (21) 
eXplore_7tr_2022-12

>  <s_vsw_compound_code>  (21) 
97314

>  <s_vsw_variant>  (21) 
97314-3

>  <r_epik_Charging_Adjusted_Penalty>  (21) 
1.22591159016581

>  <r_epik_Ionization_Penalty>  (21) 
0.61380000000000001

>  <r_epik_Ionization_Penalty_Charging>  (21) 
0.61299999999999999

>  <r_epik_Ionization_Penalty_Neutral>  (21) 
0.00080000000000000004

>  <r_epik_State_Penalty>  (21) 
0.61299999999999999

>  <r_i_docking_score>  (21) 
-4.5313521745392498

>  <r_i_glide_ecoul>  (21) 
-11.294760704040501

>  <r_i_glide_eff_state_penalty>  (21) 
0.61299999999999999

>  <r_i_glide_einternal>  (21) 
7.9029235839843803

>  <r_i_glide_emodel>  (21) 
-61.146071369453303

>  <r_i_glide_energy>  (21) 
-44.439677238464398

>  <r_i_glide_erotb>  (21) 
0.63040519659612704

>  <r_i_glide_esite>  (21) 
-0.104475737217086

>  <r_i_glide_evdw>  (21) 
-33.1449165344238

>  <r_i_glide_gscore>  (21) 
-5.1443521745392502

>  <r_i_glide_hbond>  (21) 
-0.22582352807442699

>  <r_i_glide_ligand_efficiency>  (21) 
-0.13731370225876499

>  <r_i_glide_ligand_efficiency_ln>  (21) 
-1.0077492615316299

>  <r_i_glide_ligand_efficiency_sa>  (21) 
-0.44043841346048201

>  <r_i_glide_lipo>  (21) 
-1.18938276391791

>  <r_i_glide_metal>  (21) 
-0

>  <r_i_glide_rewards>  (21) 
-0.90361540959867703

>  <r_lp_Energy>  (21) 
32.033431999999998

>  <r_qp_ACxDN^.5/SA>  (21) 
0.0135993

>  <r_qp_CIQPlogS>  (21) 
-6.7560000000000002

>  <r_qp_EA(eV)>  (21) 
1.3049999999999999

>  <r_qp_FISA>  (21) 
163.30600000000001

>  <r_qp_FOSA>  (21) 
54.777999999999999

>  <r_qp_IP(eV)>  (21) 
8.9580000000000002

>  <r_qp_Jm>  (21) 
1.52657864758806e-05

>  <r_qp_PISA>  (21) 
499.81999999999999

>  <r_qp_PSA>  (21) 
97.745999999999995

>  <r_qp_PercentHumanOralAbsorption>  (21) 
84.097999999999999

>  <r_qp_QPPCaco>  (21) 
69.850999999999999

>  <r_qp_QPPMDCK>  (21) 
55.261000000000003

>  <r_qp_QPlogBB>  (21) 
-1.1919999999999999

>  <r_qp_QPlogHERG>  (21) 
-8.1869999999999994

>  <r_qp_QPlogKhsa>  (21) 
0.68799999999999994

>  <r_qp_QPlogKp>  (21) 
-4.0629999999999997

>  <r_qp_QPlogPC16>  (21) 
16.132999999999999

>  <r_qp_QPlogPo/w>  (21) 
4.1239999999999997

>  <r_qp_QPlogPoct>  (21) 
24.556999999999999

>  <r_qp_QPlogPw>  (21) 
14.624000000000001

>  <r_qp_QPlogS>  (21) 
-6.391

>  <r_qp_QPpolrz>  (21) 
48.338000000000001

>  <r_qp_SASA>  (21) 
764.17999999999995

>  <r_qp_SAamideO>  (21) 
0

>  <r_qp_SAfluorine>  (21) 
46.276000000000003

>  <r_qp_WPSA>  (21) 
46.276000000000003

>  <r_qp_accptHB>  (21) 
6

>  <r_qp_dip^2/V>  (21) 
0.021704600000000001

>  <r_qp_dipole>  (21) 
5.4539999999999997

>  <r_qp_donorHB>  (21) 
3

>  <r_qp_glob>  (21) 
0.78090950000000003

>  <r_qp_mol_MW>  (21) 
434.47199999999998

>  <r_qp_volume>  (21) 
1370.7149999999999

>  <r_sd_BIOSOLVEIT.INFINISEE\_FTREES\_SIMILARITY>  (21) 
0.90200000000000002

>  <r_sd_BIOSOLVEIT.LOGP>  (21) 
3.7025800000000002

>  <r_sd_BIOSOLVEIT.MOLECULAR\_WEIGHT>  (21) 
435.48000000000002

>  <r_sd_BIOSOLVEIT.TPSA>  (21) 
93.420000000000002

>  <i_epik_Tot_Q>  (21) 
1

>  <i_epik_Tot_abs_Q>  (21) 
1

>  <i_f3d_flags>  (21) 
0

>  <i_i_glide_confnum>  (21) 
4

>  <i_i_glide_lignum>  (21) 
104

>  <i_i_glide_posenum>  (21) 
6

>  <i_i_glide_rotatable_bonds>  (21) 
7

>  <i_lp_mmshare_version>  (21) 
65135

>  <i_m_ct_format>  (21) 
2

>  <i_m_source_file_index>  (21) 
3042

>  <i_qp_#NandO>  (21) 
5

>  <i_qp_#acid>  (21) 
0

>  <i_qp_#amide>  (21) 
0

>  <i_qp_#amidine>  (21) 
0

>  <i_qp_#amine>  (21) 
1

>  <i_qp_#in34>  (21) 
0

>  <i_qp_#in56>  (21) 
22

>  <i_qp_#metab>  (21) 
5

>  <i_qp_#nonHatm>  (21) 
33

>  <i_qp_#noncon>  (21) 
0

>  <i_qp_#ringatoms>  (21) 
22

>  <i_qp_#rotor>  (21) 
8

>  <i_qp_#rtvFG>  (21) 
0

>  <i_qp_#stars>  (21) 
1

>  <i_qp_CNS>  (21) 
-2

>  <i_qp_HumanOralAbsorption>  (21) 
1

>  <i_qp_RuleOfFive>  (21) 
0

>  <i_qp_RuleOfThree>  (21) 
1

>  <i_sd_BIOSOLVEIT.INFINISEE\_RESULT\_RANK>  (21) 
90207

>  <i_sd_version>  (21) 
0

>  <b_lp_Chiralities_Consistent>  (21) 
1

>  <b_sd_chiral_flag>  (21) 
0

>  <acquisition_id>  (21) 
ATP-ACQ-0021

>  <canonical_id>  (21) 
ATP-HTVS-8F8686BB907F

>  <compound_code>  (21) 
97314

>  <title>  (21) 
rxn503b____EMOL483931____EMOL13728749____EMOL313110234

>  <variant>  (21) 
97314-3

>  <selection_arm>  (21) 
score_calibration

>  <priority>  (21) 
P0

>  <wave>  (21) 
1

>  <source_file>  (21) 
运行/运行/ATP-VSW/ATP-VSW-DOCK_HTVS_1-003_lib/ATP-VSW-DOCK_HTVS_1-003_lib.mae

>  <canonical_smiles>  (21) 
N#Cc1cccc(C(=O)Nc2c(C#C[C@H]([NH3+])Cc3cccc(F)c3)cnc3ccccc23)c1

$$$$
ATP-ACQ-0022
     RDKit          3D

 56 59  0  0  0  0  0  0  0  0999 V2000
  195.5443  184.7616  160.5333 F   0  0  0  0  0  0  0  0  0  0  0  0
  196.6285  184.6543  159.7317 C   0  0  0  0  0  0  0  0  0  0  0  0
  196.7647  183.5284  158.9074 C   0  0  0  0  0  0  0  0  0  0  0  0
  197.8742  183.4025  158.0345 C   0  0  0  0  0  0  0  0  0  0  0  0
  198.8585  184.4111  158.0364 C   0  0  0  0  0  0  0  0  0  0  0  0
  198.7324  185.5277  158.8865 C   0  0  0  0  0  0  0  0  0  0  0  0
  197.6118  185.6556  159.7274 C   0  0  0  0  0  0  0  0  0  0  0  0
  198.0280  182.2030  157.1044 C   0  0  1  0  0  0  0  0  0  0  0  0
  196.8477  182.0278  156.1292 C   0  0  2  0  0  0  0  0  0  0  0  0
  195.6666  181.4370  156.8000 N   0  0  2  0  0  0  0  0  0  0  0  0
  197.1452  181.1465  154.9957 C   0  0  0  0  0  0  0  0  0  0  0  0
  197.3898  180.4610  154.0112 C   0  0  0  0  0  0  0  0  0  0  0  0
  197.7039  179.7280  152.7978 C   0  0  0  0  0  0  0  0  0  0  0  0
  198.7940  178.8223  152.7050 C   0  0  0  0  0  0  0  0  0  0  0  0
  199.0269  178.1307  151.5603 N   0  0  0  0  0  0  0  0  0  0  0  0
  198.2446  178.3040  150.4759 C   0  0  0  0  0  0  0  0  0  0  0  0
  197.1656  179.2239  150.4861 C   0  0  0  0  0  0  0  0  0  0  0  0
  196.8894  179.9306  151.6670 C   0  0  0  0  0  0  0  0  0  0  0  0
  196.3844  179.4333  149.3324 C   0  0  0  0  0  0  0  0  0  0  0  0
  196.6436  178.6927  148.1660 C   0  0  0  0  0  0  0  0  0  0  0  0
  197.6970  177.7600  148.1410 C   0  0  0  0  0  0  0  0  0  0  0  0
  198.4811  177.5659  149.2951 C   0  0  0  0  0  0  0  0  0  0  0  0
  199.5485  178.5461  153.8785 N   0  0  0  0  0  0  0  0  0  0  0  0
  200.7812  178.0417  153.9401 C   0  0  0  0  0  0  0  0  0  0  0  0
  201.5931  178.1767  153.0112 O   0  0  0  0  0  0  0  0  0  0  0  0
  201.1964  177.3753  155.2659 C   0  0  1  0  0  0  0  0  0  0  0  0
  202.0123  176.1139  155.0289 C   0  0  0  0  0  0  0  0  0  0  0  0
  203.3925  176.2013  154.7389 C   0  0  0  0  0  0  0  0  0  0  0  0
  204.1551  175.0335  154.5284 C   0  0  0  0  0  0  0  0  0  0  0  0
  203.5495  173.7623  154.5896 C   0  0  0  0  0  0  0  0  0  0  0  0
  204.2987  172.6346  154.3811 O   0  0  0  0  0  0  0  0  0  0  0  0
  202.1682  173.6706  154.8653 C   0  0  0  0  0  0  0  0  0  0  0  0
  201.4047  174.8362  155.0924 C   0  0  0  0  0  0  0  0  0  0  0  0
  194.9001  181.4396  156.1406 H   0  0  0  0  0  0  0  0  0  0  0  0
  195.3675  182.0321  157.5417 H   0  0  0  0  0  0  0  0  0  0  0  0
  195.9936  182.7843  158.9899 H   0  0  0  0  0  0  0  0  0  0  0  0
  199.7264  184.3355  157.3952 H   0  0  0  0  0  0  0  0  0  0  0  0
  199.4980  186.2869  158.8941 H   0  0  0  0  0  0  0  0  0  0  0  0
  197.5141  186.5055  160.3847 H   0  0  0  0  0  0  0  0  0  0  0  0
  198.9654  182.3040  156.5430 H   0  0  0  0  0  0  0  0  0  0  0  0
  198.1299  181.3025  157.7088 H   0  0  0  0  0  0  0  0  0  0  0  0
  196.5751  182.9942  155.6875 H   0  0  0  0  0  0  0  0  0  0  0  0
  196.0730  180.6346  151.6972 H   0  0  0  0  0  0  0  0  0  0  0  0
  195.5658  180.1391  149.3482 H   0  0  0  0  0  0  0  0  0  0  0  0
  196.0391  178.8282  147.2811 H   0  0  0  0  0  0  0  0  0  0  0  0
  197.8976  177.2089  147.2325 H   0  0  0  0  0  0  0  0  0  0  0  0
  199.2896  176.8521  149.2648 H   0  0  0  0  0  0  0  0  0  0  0  0
  199.0526  178.6427  154.7560 H   0  0  0  0  0  0  0  0  0  0  0  0
  201.7547  178.0800  155.8884 H   0  0  0  0  0  0  0  0  0  0  0  0
  200.3102  177.0991  155.8460 H   0  0  0  0  0  0  0  0  0  0  0  0
  203.8713  177.1678  154.6974 H   0  0  0  0  0  0  0  0  0  0  0  0
  205.2093  175.1090  154.3140 H   0  0  0  0  0  0  0  0  0  0  0  0
  203.8169  171.8037  154.2816 H   0  0  0  0  0  0  0  0  0  0  0  0
  201.7077  172.6976  154.9090 H   0  0  0  0  0  0  0  0  0  0  0  0
  200.3549  174.7435  155.3198 H   0  0  0  0  0  0  0  0  0  0  0  0
  195.8153  180.4780  157.1648 H   0  0  0  0  0  0  0  0  0  0  0  0
  1  2  1  0
  2  3  2  0
  2  7  1  0
  3  4  1  0
  3 36  1  0
  4  5  2  0
  4  8  1  0
  5  6  1  0
  5 37  1  0
  6  7  2  0
  6 38  1  0
  7 39  1  0
  8  9  1  0
  8 40  1  6
  8 41  1  0
  9 10  1  0
  9 11  1  0
  9 42  1  6
 10 34  1  6
 10 35  1  0
 10 56  1  0
 11 12  3  0
 12 13  1  0
 13 14  1  0
 13 18  2  0
 14 15  2  0
 14 23  1  0
 15 16  1  0
 16 17  1  0
 16 22  2  0
 17 18  1  0
 17 19  2  0
 18 43  1  0
 19 20  1  0
 19 44  1  0
 20 21  2  0
 20 45  1  0
 21 22  1  0
 21 46  1  0
 22 47  1  0
 23 24  1  0
 23 48  1  0
 24 25  2  0
 24 26  1  0
 26 27  1  0
 26 49  1  1
 26 50  1  0
 27 28  1  0
 27 33  2  0
 28 29  2  0
 28 51  1  0
 29 30  1  0
 29 52  1  0
 30 31  1  0
 30 32  2  0
 31 53  1  0
 32 33  1  0
 32 54  1  0
 33 55  1  0
M  CHG  1  10   1
M  END
>  <s_epik_cmdline>  (22) 
J2VwaWtfcHl0aG9uJywgJy1waCcsICc3LjAwMDAwMCcsICctcGh0JywgJzIuMDAwMDAwJywgJy1tcycsICcxNicsICctdG4nLCAnOCcsICctbWEnLCAnMjAwJywgJy1pbWFlJywgJzxpbmZpbGUubWFlPicsICctb21hZScsICc8b3V0ZmlsZS5tYWU+Jw==

>  <s_epik_input>  (22) 
RmMxW2NIXWMoW2NIXVtjSF1bY0hdMSlbQ0gyXVtDQEhdKFtOSDJdKUMjQ2MoW2NIXWMoYzIzKVtjSF1bY0hdW2NIXVtjSF0zKWMobjIpW05IXUMoPU8pW0NIMl1jNFtjSF1bY0hdYyhbT0hdKVtjSF1bY0hdNA==

>  <s_i_glide_gridfile>  (22) 
ATP-Grid

>  <s_lp_Force_Field>  (22) 
OPLS_2005

>  <s_lp_Variant>  (22) 
rxn503b____EMOL521529____EMOL44466703____EMOL313110234-4

>  <s_lp_label>  (22) 
2664_sdstereoexpander_2_neutralizer_1_epik_2_stereoizer_1

>  <s_m_source_file>  (22) 
ATP-VSW-LIGPREP-001-in.maegz

>  <s_sd_BIOSOLVEIT.INFINISEE\_QUERY\_NAME>  (22) 
Ref-Lig

>  <s_sd_BIOSOLVEIT.INFINISEE\_QUERY\_SMILES>  (22) 
S(c1nc2c(cc1C[NH2+]Cc3ccc(cc3)C[NH+](C)C)cccc2)Cc4ccccc4

>  <s_sd_BIOSOLVEIT.INFINISEE\_REACTION\_NAME>  (22) 
rxn503b

>  <s_sd_BIOSOLVEIT.INFINISEE\_REAGENT1\_NAME>  (22) 
EMOL521529

>  <s_sd_BIOSOLVEIT.INFINISEE\_REAGENT1\_SMILES>  (22) 
O=C(O)Cc1ccc(O)cc1

>  <s_sd_BIOSOLVEIT.INFINISEE\_REAGENT2\_NAME>  (22) 
EMOL44466703

>  <s_sd_BIOSOLVEIT.INFINISEE\_REAGENT2\_SMILES>  (22) 
Brc1c(nc2c(c1)cccc2)N

>  <s_sd_BIOSOLVEIT.INFINISEE\_REAGENT3\_NAME>  (22) 
EMOL313110234

>  <s_sd_BIOSOLVEIT.INFINISEE\_REAGENT3\_SMILES>  (22) 
Fc1cc(ccc1)CC(N)C#C

>  <s_sd_BIOSOLVEIT.INFINISEE\_SPACE>  (22) 
eXplore_7tr_2022-12

>  <s_vsw_compound_code>  (22) 
85217

>  <s_vsw_variant>  (22) 
85217-4

>  <r_epik_Charging_Adjusted_Penalty>  (22) 
1.2271758803980499

>  <r_epik_Ionization_Penalty>  (22) 
0.61439999999999995

>  <r_epik_Ionization_Penalty_Charging>  (22) 
0.61299999999999999

>  <r_epik_Ionization_Penalty_Neutral>  (22) 
0.0014

>  <r_epik_State_Penalty>  (22) 
0.61419999999999997

>  <r_i_docking_score>  (22) 
-6.4929946623529302

>  <r_i_glide_ecoul>  (22) 
-19.282735824585

>  <r_i_glide_eff_state_penalty>  (22) 
0.61419999999999997

>  <r_i_glide_einternal>  (22) 
9.4100675582885707

>  <r_i_glide_emodel>  (22) 
-79.623200691425794

>  <r_i_glide_energy>  (22) 
-51.664319992065401

>  <r_i_glide_erotb>  (22) 
0.72034826401853302

>  <r_i_glide_esite>  (22) 
-0.100451183419526

>  <r_i_glide_evdw>  (22) 
-32.381584167480497

>  <r_i_glide_gscore>  (22) 
-7.1071946623529296

>  <r_i_glide_hbond>  (22) 
-0.48418838982917001

>  <r_i_glide_ligand_efficiency>  (22) 
-0.19675741401069499

>  <r_i_glide_ligand_efficiency_ln>  (22) 
-1.44400839398018

>  <r_i_glide_ligand_efficiency_sa>  (22) 
-0.63110615938494996

>  <r_i_glide_lipo>  (22) 
-1.9121235292468199

>  <r_i_glide_metal>  (22) 
-0

>  <r_i_glide_rewards>  (22) 
-0.81929024181418098

>  <r_lp_Energy>  (22) 
21.141826999999999

>  <r_lp_tautomer_probability>  (22) 
0.999999999997365

>  <r_qp_ACxDN^.5/SA>  (22) 
0.0143331

>  <r_qp_CIQPlogS>  (22) 
-6.0030000000000001

>  <r_qp_EA(eV)>  (22) 
0.95599999999999996

>  <r_qp_FISA>  (22) 
122.953

>  <r_qp_FOSA>  (22) 
91.137

>  <r_qp_IP(eV)>  (22) 
8.6509999999999998

>  <r_qp_Jm>  (22) 
0.0042910865585608403

>  <r_qp_PISA>  (22) 
472.726

>  <r_qp_PSA>  (22) 
92.001999999999995

>  <r_qp_PercentHumanOralAbsorption>  (22) 
93.067999999999998

>  <r_qp_QPPCaco>  (22) 
168.59200000000001

>  <r_qp_QPPMDCK>  (22) 
142.292

>  <r_qp_QPlogBB>  (22) 
-0.69999999999999996

>  <r_qp_QPlogHERG>  (22) 
-7.4939999999999998

>  <r_qp_QPlogKhsa>  (22) 
0.70099999999999996

>  <r_qp_QPlogKp>  (22) 
-3.319

>  <r_qp_QPlogPC16>  (22) 
15.784000000000001

>  <r_qp_QPlogPo/w>  (22) 
4.4859999999999998

>  <r_qp_QPlogPoct>  (22) 
25.675999999999998

>  <r_qp_QPlogPw>  (22) 
14.593999999999999

>  <r_qp_QPlogS>  (22) 
-4.6920000000000002

>  <r_qp_QPpolrz>  (22) 
47.552999999999997

>  <r_qp_SASA>  (22) 
732.572

>  <r_qp_SAamideO>  (22) 
0

>  <r_qp_SAfluorine>  (22) 
45.756

>  <r_qp_WPSA>  (22) 
45.756

>  <r_qp_accptHB>  (22) 
5.25

>  <r_qp_dip^2/V>  (22) 
0.0553851

>  <r_qp_dipole>  (22) 
8.7219999999999995

>  <r_qp_donorHB>  (22) 
4

>  <r_qp_glob>  (22) 
0.81574040000000003

>  <r_qp_mol_MW>  (22) 
439.488

>  <r_qp_volume>  (22) 
1373.585

>  <r_sd_BIOSOLVEIT.INFINISEE\_FTREES\_SIMILARITY>  (22) 
0.90900000000000003

>  <r_sd_BIOSOLVEIT.LOGP>  (22) 
3.4653999999999998

>  <r_sd_BIOSOLVEIT.MOLECULAR\_WEIGHT>  (22) 
440.49599999999998

>  <r_sd_BIOSOLVEIT.TPSA>  (22) 
89.859999999999999

>  <i_epik_Tot_Q>  (22) 
1

>  <i_epik_Tot_abs_Q>  (22) 
1

>  <i_f3d_flags>  (22) 
0

>  <i_i_glide_confnum>  (22) 
3

>  <i_i_glide_lignum>  (22) 
1173

>  <i_i_glide_posenum>  (22) 
17

>  <i_i_glide_rotatable_bonds>  (22) 
9

>  <i_lp_mmshare_version>  (22) 
65135

>  <i_m_ct_format>  (22) 
2

>  <i_m_source_file_index>  (22) 
2664

>  <i_qp_#NandO>  (22) 
5

>  <i_qp_#acid>  (22) 
0

>  <i_qp_#amide>  (22) 
0

>  <i_qp_#amidine>  (22) 
0

>  <i_qp_#amine>  (22) 
1

>  <i_qp_#in34>  (22) 
0

>  <i_qp_#in56>  (22) 
22

>  <i_qp_#metab>  (22) 
6

>  <i_qp_#nonHatm>  (22) 
33

>  <i_qp_#noncon>  (22) 
0

>  <i_qp_#ringatoms>  (22) 
22

>  <i_qp_#rotor>  (22) 
9

>  <i_qp_#rtvFG>  (22) 
0

>  <i_qp_#stars>  (22) 
1

>  <i_qp_CNS>  (22) 
0

>  <i_qp_HumanOralAbsorption>  (22) 
3

>  <i_qp_RuleOfFive>  (22) 
0

>  <i_qp_RuleOfThree>  (22) 
0

>  <i_sd_BIOSOLVEIT.INFINISEE\_RESULT\_RANK>  (22) 
48132

>  <i_sd_version>  (22) 
0

>  <b_lp_Chiralities_Consistent>  (22) 
1

>  <b_sd_chiral_flag>  (22) 
0

>  <acquisition_id>  (22) 
ATP-ACQ-0022

>  <canonical_id>  (22) 
ATP-HTVS-AD7FBCC01633

>  <compound_code>  (22) 
85217

>  <title>  (22) 
rxn503b____EMOL521529____EMOL44466703____EMOL313110234

>  <variant>  (22) 
85217-4

>  <selection_arm>  (22) 
exploitation

>  <priority>  (22) 
P0

>  <wave>  (22) 
1

>  <source_file>  (22) 
运行/运行/ATP-VSW/ATP-VSW-DOCK_HTVS_1-001_lib/ATP-VSW-DOCK_HTVS_1-001_lib

>  <canonical_smiles>  (22) 
[NH3+][C@H](C#Cc1cc2ccccc2nc1NC(=O)Cc1ccc(O)cc1)Cc1cccc(F)c1

$$$$
ATP-ACQ-0023
     RDKit          3D

 56 59  0  0  0  0  0  0  0  0999 V2000
  198.2206  186.5849  159.7146 O   0  0  0  0  0  0  0  0  0  0  0  0
  197.0104  186.7135  159.6888 C   0  0  0  0  0  0  0  0  0  0  0  0
  196.4082  187.8827  159.9592 N   0  0  0  0  0  0  0  0  0  0  0  0
  197.1106  189.0713  160.4188 C   0  0  1  0  0  0  0  0  0  0  0  0
  198.4158  189.3890  159.6514 C   0  0  1  0  0  0  0  0  0  0  0  0
  198.9405  190.5791  160.1628 O   0  0  0  0  0  0  0  0  0  0  0  0
  196.1134  185.5611  159.3330 C   0  0  0  0  0  0  0  0  0  0  0  0
  196.4503  184.6172  158.3157 C   0  0  0  0  0  0  0  0  0  0  0  0
  195.5716  183.5385  158.0497 C   0  0  0  0  0  0  0  0  0  0  0  0
  194.3678  183.3929  158.7478 C   0  0  0  0  0  0  0  0  0  0  0  0
  194.0422  184.3232  159.7539 C   0  0  0  0  0  0  0  0  0  0  0  0
  194.9128  185.3902  160.0529 C   0  0  0  0  0  0  0  0  0  0  0  0
  197.6936  184.7440  157.4378 C   0  0  1  0  0  0  0  0  0  0  0  0
  198.6936  183.6785  157.6837 N   0  0  0  0  0  0  0  0  0  0  0  0
  199.4459  183.3792  156.4430 C   0  0  1  0  0  0  0  0  0  0  0  0
  200.6600  182.4435  156.6362 C   0  0  0  0  0  0  0  0  0  0  0  0
  201.8066  182.9131  157.3457 C   0  0  0  0  0  0  0  0  0  0  0  0
  201.8400  184.2038  157.9365 N   0  0  0  0  0  0  0  0  0  0  0  0
  200.8309  184.7754  158.6158 C   0  0  0  0  0  0  0  0  0  0  0  0
  200.9442  185.9192  159.0266 O   0  0  0  0  0  0  0  0  0  0  0  0
  199.5462  183.9523  158.8811 C   0  0  1  0  0  0  0  0  0  0  0  0
  202.9520  182.0850  157.4613 C   0  0  0  0  0  0  0  0  0  0  0  0
  202.9639  180.7933  156.9012 C   0  0  0  0  0  0  0  0  0  0  0  0
  201.8310  180.3219  156.2175 C   0  0  0  0  0  0  0  0  0  0  0  0
  200.6922  181.1324  156.0816 C   0  0  0  0  0  0  0  0  0  0  0  0
  198.5176  182.7955  155.3671 C   0  0  0  0  0  0  0  0  0  0  0  0
  197.5494  181.8323  155.7281 C   0  0  0  0  0  0  0  0  0  0  0  0
  196.6914  181.2748  154.7689 C   0  0  0  0  0  0  0  0  0  0  0  0
  196.8051  181.6581  153.4186 C   0  0  0  0  0  0  0  0  0  0  0  0
  197.7791  182.5996  153.0345 C   0  0  0  0  0  0  0  0  0  0  0  0
  198.6325  183.1705  154.0051 C   0  0  0  0  0  0  0  0  0  0  0  0
  195.3987  187.9536  159.9252 H   0  0  0  0  0  0  0  0  0  0  0  0
  196.4227  189.8999  160.3229 H   0  0  0  0  0  0  0  0  0  0  0  0
  197.3205  188.9725  161.4829 H   0  0  0  0  0  0  0  0  0  0  0  0
  199.1964  188.6412  159.7918 H   0  0  0  0  0  0  0  0  0  0  0  0
  198.2440  189.4911  158.5804 H   0  0  0  0  0  0  0  0  0  0  0  0
  199.2274  190.3562  161.0592 H   0  0  0  0  0  0  0  0  0  0  0  0
  195.7701  182.8455  157.2537 H   0  0  0  0  0  0  0  0  0  0  0  0
  193.6811  182.5910  158.4784 H   0  0  0  0  0  0  0  0  0  0  0  0
  193.1282  184.2164  160.3057 H   0  0  0  0  0  0  0  0  0  0  0  0
  194.6275  186.0522  160.8557 H   0  0  0  0  0  0  0  0  0  0  0  0
  197.2744  184.6983  156.4310 H   0  0  0  0  0  0  0  0  0  0  0  0
  198.1692  185.7209  157.4460 H   0  0  0  0  0  0  0  0  0  0  0  0
  199.8337  184.3173  156.0353 H   0  0  0  0  0  0  0  0  0  0  0  0
  202.7296  184.6773  157.9294 H   0  0  0  0  0  0  0  0  0  0  0  0
  198.9451  184.3783  159.7004 H   0  0  0  0  0  0  0  0  0  0  0  0
  199.8936  182.9812  159.2464 H   0  0  0  0  0  0  0  0  0  0  0  0
  203.8181  182.4469  157.9965 H   0  0  0  0  0  0  0  0  0  0  0  0
  203.8363  180.1658  156.9885 H   0  0  0  0  0  0  0  0  0  0  0  0
  201.8231  179.3357  155.7779 H   0  0  0  0  0  0  0  0  0  0  0  0
  199.8648  180.7109  155.5274 H   0  0  0  0  0  0  0  0  0  0  0  0
  197.4615  181.5191  156.7571 H   0  0  0  0  0  0  0  0  0  0  0  0
  195.9502  180.5551  155.0877 H   0  0  0  0  0  0  0  0  0  0  0  0
  196.1486  181.2181  152.6846 H   0  0  0  0  0  0  0  0  0  0  0  0
  197.8822  182.8804  152.0018 H   0  0  0  0  0  0  0  0  0  0  0  0
  199.3872  183.8906  153.7133 H   0  0  0  0  0  0  0  0  0  0  0  0
  1  2  2  0
  2  3  1  0
  2  7  1  0
  3  4  1  0
  3 32  1  0
  4  5  1  0
  4 33  1  1
  4 34  1  0
  5  6  1  0
  5 35  1  6
  5 36  1  0
  6 37  1  0
  7  8  1  0
  7 12  2  0
  8  9  2  0
  8 13  1  0
  9 10  1  0
  9 38  1  0
 10 11  2  0
 10 39  1  0
 11 12  1  0
 11 40  1  0
 12 41  1  0
 13 14  1  0
 13 42  1  6
 13 43  1  0
 14 15  1  0
 14 21  1  0
 15 16  1  0
 15 26  1  0
 15 44  1  6
 16 17  1  0
 16 25  2  0
 17 18  1  0
 17 22  2  0
 18 19  1  0
 18 45  1  0
 19 20  2  0
 19 21  1  0
 21 46  1  1
 21 47  1  0
 22 23  1  0
 22 48  1  0
 23 24  2  0
 23 49  1  0
 24 25  1  0
 24 50  1  0
 25 51  1  0
 26 27  2  0
 26 31  1  0
 27 28  1  0
 27 52  1  0
 28 29  2  0
 28 53  1  0
 29 30  1  0
 29 54  1  0
 30 31  2  0
 30 55  1  0
 31 56  1  0
M  END
>  <s_epik_cmdline>  (23) 
J2VwaWtfcHl0aG9uJywgJy1waCcsICc3LjAwMDAwMCcsICctcGh0JywgJzIuMDAwMDAwJywgJy1tcycsICcxNicsICctdG4nLCAnOCcsICctbWEnLCAnMjAwJywgJy1pbWFlJywgJzxpbmZpbGUubWFlPicsICctb21hZScsICc8b3V0ZmlsZS5tYWU+Jw==

>  <s_epik_input>  (23) 
W09IXVtDSDJdW0NIMl1bTkhdQyg9TyljMWMoW2NIXVtjSF1bY0hdW2NIXTEpW0NIMl1OKFtDQEBIXTJjM1tjSF1bY0hdW2NIXVtjSF1bY0hdMylbQ0gyXUMoPU8pW05IXWMoYzI0KVtjSF1bY0hdW2NIXVtjSF00

>  <s_i_glide_gridfile>  (23) 
ATP-Grid

>  <s_lp_Force_Field>  (23) 
OPLS_2005

>  <s_lp_Variant>  (23) 
rxn512b____EMOL299981165____EMOL1939773____EMOL6185419-1

>  <s_lp_label>  (23) 
2483_sdstereoexpander_1_neutralizer_1_epik_1_stereoizer_1

>  <s_m_source_file>  (23) 
ATP-VSW-LIGPREP-003-in.maegz

>  <s_sd_BIOSOLVEIT.INFINISEE\_QUERY\_NAME>  (23) 
Ref-Lig

>  <s_sd_BIOSOLVEIT.INFINISEE\_QUERY\_SMILES>  (23) 
S(c1nc2c(cc1C[NH2+]Cc3ccc(cc3)C[NH+](C)C)cccc2)Cc4ccccc4

>  <s_sd_BIOSOLVEIT.INFINISEE\_REACTION\_NAME>  (23) 
rxn512b

>  <s_sd_BIOSOLVEIT.INFINISEE\_REAGENT1\_NAME>  (23) 
EMOL299981165

>  <s_sd_BIOSOLVEIT.INFINISEE\_REAGENT1\_SMILES>  (23) 
OCCN

>  <s_sd_BIOSOLVEIT.INFINISEE\_REAGENT2\_NAME>  (23) 
EMOL1939773

>  <s_sd_BIOSOLVEIT.INFINISEE\_REAGENT2\_SMILES>  (23) 
BrCc1c(cccc1)C(=O)O

>  <s_sd_BIOSOLVEIT.INFINISEE\_REAGENT3\_NAME>  (23) 
EMOL6185419

>  <s_sd_BIOSOLVEIT.INFINISEE\_REAGENT3\_SMILES>  (23) 
O=C1Nc2c(cccc2)C(NC1)c3ccccc3

>  <s_sd_BIOSOLVEIT.INFINISEE\_SPACE>  (23) 
eXplore_7tr_2022-12

>  <s_vsw_compound_code>  (23) 
79427

>  <s_vsw_variant>  (23) 
79427-1

>  <r_epik_Charging_Adjusted_Penalty>  (23) 
0.0087634984339075902

>  <r_epik_Ionization_Penalty>  (23) 
0.0088000000000000005

>  <r_epik_Ionization_Penalty_Charging>  (23) 
0

>  <r_epik_Ionization_Penalty_Neutral>  (23) 
0.0088000000000000005

>  <r_epik_State_Penalty>  (23) 
0.0088000000000000005

>  <r_i_docking_score>  (23) 
-3.3427339736150201

>  <r_i_glide_ecoul>  (23) 
-5.2905635833740199

>  <r_i_glide_eff_state_penalty>  (23) 
0.0088000000000000005

>  <r_i_glide_einternal>  (23) 
2.5486073493957502

>  <r_i_glide_emodel>  (23) 
-39.070020243579002

>  <r_i_glide_energy>  (23) 
-33.265604019165004

>  <r_i_glide_erotb>  (23) 
0.80074468397813003

>  <r_i_glide_esite>  (23) 
0

>  <r_i_glide_evdw>  (23) 
-27.975040435791001

>  <r_i_glide_gscore>  (23) 
-3.35153397361502

>  <r_i_glide_hbond>  (23) 
-0.23687525164352599

>  <r_i_glide_ligand_efficiency>  (23) 
-0.10783012818113

>  <r_i_glide_ligand_efficiency_ln>  (23) 
-0.75388895354359897

>  <r_i_glide_ligand_efficiency_sa>  (23) 
-0.33873547802534598

>  <r_i_glide_lipo>  (23) 
-0.82498192752142196

>  <r_i_glide_metal>  (23) 
-0

>  <r_i_glide_rewards>  (23) 
-0.89808491913254296

>  <r_lp_Energy>  (23) 
42.848627999999998

>  <r_qp_ACxDN^.5/SA>  (23) 
0.020884099999999999

>  <r_qp_CIQPlogS>  (23) 
-4.0339999999999998

>  <r_qp_EA(eV)>  (23) 
0.313

>  <r_qp_FISA>  (23) 
143.375

>  <r_qp_FOSA>  (23) 
129.90799999999999

>  <r_qp_IP(eV)>  (23) 
8.8460000000000001

>  <r_qp_Jm>  (23) 
0.0033694163202849701

>  <r_qp_PISA>  (23) 
448.26299999999998

>  <r_qp_PSA>  (23) 
95.799000000000007

>  <r_qp_PercentHumanOralAbsorption>  (23) 
78.730000000000004

>  <r_qp_QPPCaco>  (23) 
107.937

>  <r_qp_QPPMDCK>  (23) 
49.340000000000003

>  <r_qp_QPlogBB>  (23) 
-0.88600000000000001

>  <r_qp_QPlogHERG>  (23) 
-7.5999999999999996

>  <r_qp_QPlogKhsa>  (23) 
0.187

>  <r_qp_QPlogKp>  (23) 
-4.069

>  <r_qp_QPlogPC16>  (23) 
15.269

>  <r_qp_QPlogPo/w>  (23) 
2.629

>  <r_qp_QPlogPoct>  (23) 
25.254999999999999

>  <r_qp_QPlogPw>  (23) 
17.120000000000001

>  <r_qp_QPlogS>  (23) 
-4.0220000000000002

>  <r_qp_QPpolrz>  (23) 
46.652999999999999

>  <r_qp_SASA>  (23) 
721.54600000000005

>  <r_qp_SAamideO>  (23) 
0

>  <r_qp_SAfluorine>  (23) 
0

>  <r_qp_WPSA>  (23) 
0

>  <r_qp_accptHB>  (23) 
8.6999999999999993

>  <r_qp_dip^2/V>  (23) 
0.028832799999999999

>  <r_qp_dipole>  (23) 
6.1429999999999998

>  <r_qp_donorHB>  (23) 
3

>  <r_qp_glob>  (23) 
0.80195970000000005

>  <r_qp_mol_MW>  (23) 
415.49099999999999

>  <r_qp_volume>  (23) 
1308.8119999999999

>  <r_sd_BIOSOLVEIT.INFINISEE\_FTREES\_SIMILARITY>  (23) 
0.91500000000000004

>  <r_sd_BIOSOLVEIT.LOGP>  (23) 
1.5353000000000001

>  <r_sd_BIOSOLVEIT.MOLECULAR\_WEIGHT>  (23) 
416.49799999999999

>  <r_sd_BIOSOLVEIT.TPSA>  (23) 
82.870000000000005

>  <i_epik_Tot_Q>  (23) 
0

>  <i_epik_Tot_abs_Q>  (23) 
0

>  <i_f3d_flags>  (23) 
0

>  <i_i_glide_confnum>  (23) 
8

>  <i_i_glide_lignum>  (23) 
1072

>  <i_i_glide_posenum>  (23) 
8

>  <i_i_glide_rotatable_bonds>  (23) 
8

>  <i_lp_mmshare_version>  (23) 
65135

>  <i_m_ct_format>  (23) 
2

>  <i_m_source_file_index>  (23) 
2483

>  <i_qp_#NandO>  (23) 
6

>  <i_qp_#acid>  (23) 
0

>  <i_qp_#amide>  (23) 
0

>  <i_qp_#amidine>  (23) 
0

>  <i_qp_#amine>  (23) 
1

>  <i_qp_#in34>  (23) 
0

>  <i_qp_#in56>  (23) 
18

>  <i_qp_#metab>  (23) 
8

>  <i_qp_#nonHatm>  (23) 
31

>  <i_qp_#noncon>  (23) 
2

>  <i_qp_#ringatoms>  (23) 
23

>  <i_qp_#rotor>  (23) 
6

>  <i_qp_#rtvFG>  (23) 
0

>  <i_qp_#stars>  (23) 
0

>  <i_qp_CNS>  (23) 
-1

>  <i_qp_HumanOralAbsorption>  (23) 
2

>  <i_qp_RuleOfFive>  (23) 
0

>  <i_qp_RuleOfThree>  (23) 
1

>  <i_sd_BIOSOLVEIT.INFINISEE\_RESULT\_RANK>  (23) 
28948

>  <i_sd_version>  (23) 
0

>  <b_lp_Chiralities_Consistent>  (23) 
1

>  <b_sd_chiral_flag>  (23) 
0

>  <acquisition_id>  (23) 
ATP-ACQ-0023

>  <canonical_id>  (23) 
ATP-HTVS-F8D25E752EF8

>  <compound_code>  (23) 
79427

>  <title>  (23) 
rxn512b____EMOL299981165____EMOL1939773____EMOL6185419

>  <variant>  (23) 
79427-1

>  <selection_arm>  (23) 
descriptor_diversity

>  <priority>  (23) 
P0

>  <wave>  (23) 
1

>  <source_file>  (23) 
运行/运行/ATP-VSW/ATP-VSW-DOCK_HTVS_1-003_lib/ATP-VSW-DOCK_HTVS_1-003_lib.mae

>  <canonical_smiles>  (23) 
O=C1CN(Cc2ccccc2C(=O)NCCO)[C@H](c2ccccc2)c2ccccc2N1

$$$$
ATP-ACQ-0024
     RDKit          3D

 70 74  0  0  0  0  0  0  0  0999 V2000
  201.3509  184.3144  158.5442 O   0  0  0  0  0  0  0  0  0  0  0  0
  200.2206  184.2136  158.0687 C   0  0  0  0  0  0  0  0  0  0  0  0
  199.2458  185.1248  158.2599 N   0  0  0  0  0  0  0  0  0  0  0  0
  199.3615  186.4685  158.7291 C   0  0  0  0  0  0  0  0  0  0  0  0
  198.1777  187.2032  159.0276 C   0  0  0  0  0  0  0  0  0  0  0  0
  196.9137  186.6037  158.8940 N   0  0  0  0  0  0  0  0  0  0  0  0
  196.5118  185.6805  159.9567 C   0  0  1  0  0  0  0  0  0  0  0  0
  195.6323  186.3671  160.9171 C   0  0  0  0  0  0  0  0  0  0  0  0
  194.9369  186.9042  161.6711 N   0  0  0  0  0  0  0  0  0  0  0  0
  195.8961  184.3724  159.4770 C   0  0  0  0  0  0  0  0  0  0  0  0
  196.7137  183.2409  159.2921 C   0  0  0  0  0  0  0  0  0  0  0  0
  196.1572  182.0346  158.8297 C   0  0  0  0  0  0  0  0  0  0  0  0
  194.7793  181.9422  158.5663 C   0  0  0  0  0  0  0  0  0  0  0  0
  193.9569  183.0623  158.7570 C   0  0  0  0  0  0  0  0  0  0  0  0
  194.5103  184.2656  159.2243 C   0  0  0  0  0  0  0  0  0  0  0  0
  196.2467  186.6358  157.5830 C   0  0  1  0  0  0  0  0  0  0  0  0
  196.6747  187.7789  156.6449 C   0  0  2  0  0  0  0  0  0  0  0  0
  198.2974  188.5838  159.3683 C   0  0  0  0  0  0  0  0  0  0  0  0
  199.5850  189.1761  159.4152 C   0  0  0  0  0  0  0  0  0  0  0  0
  200.6696  188.4324  159.1320 N   0  0  0  0  0  0  0  0  0  0  0  0
  200.6088  187.1294  158.7926 C   0  0  0  0  0  0  0  0  0  0  0  0
  199.7422  190.5405  159.7305 C   0  0  0  0  0  0  0  0  0  0  0  0
  198.6121  191.3240  160.0202 C   0  0  0  0  0  0  0  0  0  0  0  0
  197.3264  190.7539  159.9626 C   0  0  0  0  0  0  0  0  0  0  0  0
  197.1666  189.3902  159.6434 C   0  0  0  0  0  0  0  0  0  0  0  0
  199.8056  182.9727  157.3153 C   0  0  0  0  0  0  0  0  0  0  0  0
  198.6848  182.9794  156.4524 C   0  0  0  0  0  0  0  0  0  0  0  0
  198.3073  181.8172  155.7512 C   0  0  0  0  0  0  0  0  0  0  0  0
  199.0747  180.6432  155.8827 C   0  0  0  0  0  0  0  0  0  0  0  0
  200.2064  180.6291  156.7195 C   0  0  0  0  0  0  0  0  0  0  0  0
  200.5749  181.7907  157.4282 C   0  0  0  0  0  0  0  0  0  0  0  0
  197.0831  181.8367  154.8676 C   0  0  1  0  0  0  0  0  0  0  0  0
  197.4612  182.2491  153.4803 N   0  0  1  0  0  0  0  0  0  0  0  0
  196.4937  181.8696  152.4392 C   0  0  1  0  0  0  0  0  0  0  0  0
  196.8559  182.7113  151.2082 C   0  0  1  0  0  0  0  0  0  0  0  0
  197.6505  183.9026  151.7561 C   0  0  1  0  0  0  0  0  0  0  0  0
  197.6886  183.6994  153.2792 C   0  0  1  0  0  0  0  0  0  0  0  0
  198.3156  184.8473  157.9796 H   0  0  0  0  0  0  0  0  0  0  0  0
  197.4003  185.4213  160.5350 H   0  0  0  0  0  0  0  0  0  0  0  0
  197.7691  183.2769  159.5187 H   0  0  0  0  0  0  0  0  0  0  0  0
  196.7831  181.1635  158.6945 H   0  0  0  0  0  0  0  0  0  0  0  0
  194.3500  181.0114  158.2236 H   0  0  0  0  0  0  0  0  0  0  0  0
  192.9008  182.9905  158.5505 H   0  0  0  0  0  0  0  0  0  0  0  0
  193.8554  185.1037  159.3798 H   0  0  0  0  0  0  0  0  0  0  0  0
  196.3997  185.6857  157.0769 H   0  0  0  0  0  0  0  0  0  0  0  0
  195.1733  186.7247  157.7524 H   0  0  0  0  0  0  0  0  0  0  0  0
  196.0968  187.7357  155.7361 H   0  0  0  0  0  0  0  0  0  0  0  0
  197.7348  187.7370  156.3783 H   0  0  0  0  0  0  0  0  0  0  0  0
  196.4833  188.7452  157.1066 H   0  0  0  0  0  0  0  0  0  0  0  0
  201.5587  186.6940  158.5219 H   0  0  0  0  0  0  0  0  0  0  0  0
  200.7234  190.9858  159.7894 H   0  0  0  0  0  0  0  0  0  0  0  0
  198.7356  192.3605  160.3003 H   0  0  0  0  0  0  0  0  0  0  0  0
  196.4571  191.3577  160.1734 H   0  0  0  0  0  0  0  0  0  0  0  0
  196.1627  188.9897  159.5876 H   0  0  0  0  0  0  0  0  0  0  0  0
  198.0945  183.8710  156.3156 H   0  0  0  0  0  0  0  0  0  0  0  0
  198.8056  179.7457  155.3467 H   0  0  0  0  0  0  0  0  0  0  0  0
  200.7844  179.7203  156.8331 H   0  0  0  0  0  0  0  0  0  0  0  0
  201.4298  181.7471  158.0947 H   0  0  0  0  0  0  0  0  0  0  0  0
  196.6477  180.8393  154.8594 H   0  0  0  0  0  0  0  0  0  0  0  0
  196.3205  182.4921  155.2854 H   0  0  0  0  0  0  0  0  0  0  0  0
  196.4439  180.7930  152.2536 H   0  0  0  0  0  0  0  0  0  0  0  0
  195.5348  182.1918  152.8120 H   0  0  0  0  0  0  0  0  0  0  0  0
  197.4723  182.1248  150.5306 H   0  0  0  0  0  0  0  0  0  0  0  0
  195.9648  183.0169  150.6648 H   0  0  0  0  0  0  0  0  0  0  0  0
  198.6626  183.8869  151.3535 H   0  0  0  0  0  0  0  0  0  0  0  0
  197.2097  184.8630  151.4973 H   0  0  0  0  0  0  0  0  0  0  0  0
  196.8605  184.2585  153.7299 H   0  0  0  0  0  0  0  0  0  0  0  0
  198.6186  184.0555  153.7332 H   0  0  0  0  0  0  0  0  0  0  0  0
  198.3190  181.7879  153.2249 H   0  0  0  0  0  0  0  0  0  0  0  0
  201.5832  188.8826  159.1453 H   0  0  0  0  0  0  0  0  0  0  0  0
  1  2  2  0
  2  3  1  0
  2 26  1  0
  3  4  1  0
  3 38  1  0
  4  5  2  0
  4 21  1  0
  5  6  1  0
  5 18  1  0
  6  7  1  0
  6 16  1  0
  7  8  1  0
  7 10  1  0
  7 39  1  1
  8  9  3  0
 10 11  2  0
 10 15  1  0
 11 12  1  0
 11 40  1  0
 12 13  2  0
 12 41  1  0
 13 14  1  0
 13 42  1  0
 14 15  2  0
 14 43  1  0
 15 44  1  0
 16 17  1  0
 16 45  1  6
 16 46  1  0
 17 47  1  6
 17 48  1  0
 17 49  1  0
 18 19  1  0
 18 25  2  0
 19 20  1  0
 19 22  2  0
 20 21  2  0
 20 70  1  0
 21 50  1  0
 22 23  1  0
 22 51  1  0
 23 24  2  0
 23 52  1  0
 24 25  1  0
 24 53  1  0
 25 54  1  0
 26 27  2  0
 26 31  1  0
 27 28  1  0
 27 55  1  0
 28 29  2  0
 28 32  1  0
 29 30  1  0
 29 56  1  0
 30 31  2  0
 30 57  1  0
 31 58  1  0
 32 33  1  0
 32 59  1  6
 32 60  1  0
 33 34  1  0
 33 37  1  0
 33 69  1  6
 34 35  1  0
 34 61  1  6
 34 62  1  0
 35 36  1  0
 35 63  1  6
 35 64  1  0
 36 37  1  0
 36 65  1  6
 36 66  1  0
 37 67  1  1
 37 68  1  0
M  CHG  2  20   1  33   1
M  END
>  <s_epik_cmdline>  (24) 
J2VwaWtfcHl0aG9uJywgJy1waCcsICc3LjAwMDAwMCcsICctcGh0JywgJzIuMDAwMDAwJywgJy1tcycsICcxNicsICctdG4nLCAnOCcsICctbWEnLCAnMjAwJywgJy1pbWFlJywgJzxpbmZpbGUubWFlPicsICctb21hZScsICc8b3V0ZmlsZS5tYWU+Jw==

>  <s_epik_input>  (24) 
W0NIMl0xW0NIMl1bQ0gyXVtDSDJdTjFbQ0gyXWMoW2NIXVtjSF1bY0hdMilbY0hdYzJDKD1PKVtOSF1jKFtjSF1uYyhjMzQpW2NIXVtjSF1bY0hdW2NIXTQpYzNOKFtDSDJdW0NIM10pW0NAQEhdKEMjTiljNVtjSF1bY0hdW2NIXVtjSF1bY0hdNQ==

>  <s_i_glide_gridfile>  (24) 
ATP-Grid

>  <s_lp_Force_Field>  (24) 
OPLS_2005

>  <s_lp_Variant>  (24) 
rxn502b____EMOL5849923____EMOL30488121____EMOL49839592-1

>  <s_lp_label>  (24) 
2981_sdstereoexpander_1_neutralizer_1_epik_1_stereoizer_1

>  <s_m_source_file>  (24) 
ATP-VSW-LIGPREP-001-in.maegz

>  <s_sd_BIOSOLVEIT.INFINISEE\_QUERY\_NAME>  (24) 
Ref-Lig

>  <s_sd_BIOSOLVEIT.INFINISEE\_QUERY\_SMILES>  (24) 
S(c1nc2c(cc1C[NH2+]Cc3ccc(cc3)C[NH+](C)C)cccc2)Cc4ccccc4

>  <s_sd_BIOSOLVEIT.INFINISEE\_REACTION\_NAME>  (24) 
rxn502b

>  <s_sd_BIOSOLVEIT.INFINISEE\_REAGENT1\_NAME>  (24) 
EMOL5849923

>  <s_sd_BIOSOLVEIT.INFINISEE\_REAGENT1\_SMILES>  (24) 
O=C(O)c1cc(ccc1)CN2CCCC2

>  <s_sd_BIOSOLVEIT.INFINISEE\_REAGENT2\_NAME>  (24) 
EMOL30488121

>  <s_sd_BIOSOLVEIT.INFINISEE\_REAGENT2\_SMILES>  (24) 
Brc1c(N)cnc2c1cccc2

>  <s_sd_BIOSOLVEIT.INFINISEE\_REAGENT3\_NAME>  (24) 
EMOL49839592

>  <s_sd_BIOSOLVEIT.INFINISEE\_REAGENT3\_SMILES>  (24) 
N#CC(NCC)c1ccccc1

>  <s_sd_BIOSOLVEIT.INFINISEE\_SPACE>  (24) 
eXplore_7tr_2022-12

>  <s_vsw_compound_code>  (24) 
95361

>  <s_vsw_variant>  (24) 
95361-1

>  <r_epik_Charging_Adjusted_Penalty>  (24) 
0.26277358272881901

>  <r_epik_Ionization_Penalty>  (24) 
0.13120000000000001

>  <r_epik_Ionization_Penalty_Charging>  (24) 
0.13109999999999999

>  <r_epik_Ionization_Penalty_Neutral>  (24) 
0.0001

>  <r_epik_State_Penalty>  (24) 
0.13170000000000001

>  <r_i_docking_score>  (24) 
-4.5312106913309202

>  <r_i_glide_ecoul>  (24) 
-8.0760135650634801

>  <r_i_glide_eff_state_penalty>  (24) 
0.13170000000000001

>  <r_i_glide_einternal>  (24) 
4.9983291625976598

>  <r_i_glide_emodel>  (24) 
-63.718082976767597

>  <r_i_glide_energy>  (24) 
-46.666318893432603

>  <r_i_glide_erotb>  (24) 
0.67386511502589597

>  <r_i_glide_esite>  (24) 
-0.028944793162924001

>  <r_i_glide_evdw>  (24) 
-38.590305328369098

>  <r_i_glide_gscore>  (24) 
-4.6629106913309197

>  <r_i_glide_hbond>  (24) 
0

>  <r_i_glide_ligand_efficiency>  (24) 
-0.12246515381975499

>  <r_i_glide_ligand_efficiency_ln>  (24) 
-0.98271337229953104

>  <r_i_glide_ligand_efficiency_sa>  (24) 
-0.40808106113218701

>  <r_i_glide_lipo>  (24) 
-1.24684592712097

>  <r_i_glide_metal>  (24) 
-0

>  <r_i_glide_rewards>  (24) 
-0.92006778489495

>  <r_lp_Energy>  (24) 
62.135958000000002

>  <r_qp_ACxDN^.5/SA>  (24) 
0.010175399999999999

>  <r_qp_CIQPlogS>  (24) 
-7.266

>  <r_qp_EA(eV)>  (24) 
1.117

>  <r_qp_FISA>  (24) 
87.930999999999997

>  <r_qp_FOSA>  (24) 
284.27600000000001

>  <r_qp_IP(eV)>  (24) 
8.7590000000000003

>  <r_qp_Jm>  (24) 
0.00089492594023360395

>  <r_qp_PISA>  (24) 
414.00299999999999

>  <r_qp_PSA>  (24) 
71.915999999999997

>  <r_qp_PercentHumanOralAbsorption>  (24) 
100

>  <r_qp_QPPCaco>  (24) 
362.20400000000001

>  <r_qp_QPPMDCK>  (24) 
182.60400000000001

>  <r_qp_QPlogBB>  (24) 
-0.45400000000000001

>  <r_qp_QPlogHERG>  (24) 
-7.1619999999999999

>  <r_qp_QPlogKhsa>  (24) 
0.81200000000000006

>  <r_qp_QPlogKp>  (24) 
-2.8799999999999999

>  <r_qp_QPlogPC16>  (24) 
16.167000000000002

>  <r_qp_QPlogPo/w>  (24) 
4.923

>  <r_qp_QPlogPoct>  (24) 
24.23

>  <r_qp_QPlogPw>  (24) 
12.385

>  <r_qp_QPlogS>  (24) 
-5.8579999999999997

>  <r_qp_QPpolrz>  (24) 
53.503

>  <r_qp_SASA>  (24) 
786.21000000000004

>  <r_qp_SAamideO>  (24) 
0

>  <r_qp_SAfluorine>  (24) 
0

>  <r_qp_WPSA>  (24) 
0

>  <r_qp_accptHB>  (24) 
8

>  <r_qp_dip^2/V>  (24) 
0.037852400000000001

>  <r_qp_dipole>  (24) 
7.6260000000000003

>  <r_qp_donorHB>  (24) 
1

>  <r_qp_glob>  (24) 
0.81898720000000003

>  <r_qp_mol_MW>  (24) 
489.61900000000003

>  <r_qp_volume>  (24) 
1536.299

>  <r_sd_BIOSOLVEIT.INFINISEE\_FTREES\_SIMILARITY>  (24) 
0.90300000000000002

>  <r_sd_BIOSOLVEIT.LOGP>  (24) 
4.7569800000000004

>  <r_sd_BIOSOLVEIT.MOLECULAR\_WEIGHT>  (24) 
490.62799999999999

>  <r_sd_BIOSOLVEIT.TPSA>  (24) 
73.459999999999994

>  <i_epik_Tot_Q>  (24) 
2

>  <i_epik_Tot_abs_Q>  (24) 
2

>  <i_f3d_flags>  (24) 
0

>  <i_i_glide_confnum>  (24) 
7

>  <i_i_glide_lignum>  (24) 
1411

>  <i_i_glide_posenum>  (24) 
16

>  <i_i_glide_rotatable_bonds>  (24) 
9

>  <i_lp_mmshare_version>  (24) 
65135

>  <i_m_ct_format>  (24) 
2

>  <i_m_source_file_index>  (24) 
2981

>  <i_qp_#NandO>  (24) 
6

>  <i_qp_#acid>  (24) 
0

>  <i_qp_#amide>  (24) 
0

>  <i_qp_#amidine>  (24) 
0

>  <i_qp_#amine>  (24) 
1

>  <i_qp_#in34>  (24) 
0

>  <i_qp_#in56>  (24) 
27

>  <i_qp_#metab>  (24) 
6

>  <i_qp_#nonHatm>  (24) 
37

>  <i_qp_#noncon>  (24) 
4

>  <i_qp_#ringatoms>  (24) 
27

>  <i_qp_#rotor>  (24) 
9

>  <i_qp_#rtvFG>  (24) 
0

>  <i_qp_#stars>  (24) 
0

>  <i_qp_CNS>  (24) 
1

>  <i_qp_HumanOralAbsorption>  (24) 
3

>  <i_qp_RuleOfFive>  (24) 
0

>  <i_qp_RuleOfThree>  (24) 
1

>  <i_sd_BIOSOLVEIT.INFINISEE\_RESULT\_RANK>  (24) 
83705

>  <i_sd_version>  (24) 
0

>  <b_lp_Chiralities_Consistent>  (24) 
1

>  <b_sd_chiral_flag>  (24) 
0

>  <acquisition_id>  (24) 
ATP-ACQ-0024

>  <canonical_id>  (24) 
ATP-HTVS-7EF96EA99BCF

>  <compound_code>  (24) 
95361

>  <title>  (24) 
rxn502b____EMOL5849923____EMOL30488121____EMOL49839592

>  <variant>  (24) 
95361-1

>  <selection_arm>  (24) 
score_calibration

>  <priority>  (24) 
P0

>  <wave>  (24) 
1

>  <source_file>  (24) 
运行/运行/ATP-VSW/ATP-VSW-DOCK_HTVS_1-001_lib/ATP-VSW-DOCK_HTVS_1-001_lib

>  <canonical_smiles>  (24) 
CCN(c1c(NC(=O)c2cccc(C[NH+]3CCCC3)c2)c[nH+]c2ccccc12)[C@@H](C#N)c1ccccc1

$$$$
ATP-ACQ-0025
     RDKit          3D

 47 50  0  0  0  0  0  0  0  0999 V2000
  193.4746  186.6987  162.0290 Cl  0  0  0  0  0  0  0  0  0  0  0  0
  194.6834  186.1053  160.9393 C   0  0  0  0  0  0  0  0  0  0  0  0
  194.3963  184.9868  160.1309 C   0  0  0  0  0  0  0  0  0  0  0  0
  195.3896  184.4494  159.2815 C   0  0  0  0  0  0  0  0  0  0  0  0
  196.6508  185.0887  159.2304 C   0  0  0  0  0  0  0  0  0  0  0  0
  196.9420  186.1917  160.0474 C   0  0  0  0  0  0  0  0  0  0  0  0
  195.9594  186.7038  160.9182 C   0  0  0  0  0  0  0  0  0  0  0  0
  195.1244  183.2713  158.3494 C   0  0  2  0  0  0  0  0  0  0  0  0
  193.8459  182.6697  158.5245 O   0  0  0  0  0  0  0  0  0  0  0  0
  196.1721  182.1393  158.4428 C   0  0  1  0  0  0  0  0  0  0  0  0
  196.3217  181.4445  157.1333 N   0  0  1  0  0  0  0  0  0  0  0  0
  197.6353  181.6203  156.4697 C   0  0  2  0  0  0  0  0  0  0  0  0
  198.0436  183.0942  156.3228 C   0  0  0  0  0  0  0  0  0  0  0  0
  197.2598  183.8698  155.5421 N   0  0  0  0  0  0  0  0  0  0  0  0
  197.5480  185.1864  155.4414 C   0  0  0  0  0  0  0  0  0  0  0  0
  198.6121  185.7964  156.1299 C   0  0  0  0  0  0  0  0  0  0  0  0
  199.4296  184.9951  156.9465 C   0  0  0  0  0  0  0  0  0  0  0  0
  199.1420  183.6170  157.0481 C   0  0  0  0  0  0  0  0  0  0  0  0
  197.6506  180.9156  155.1499 C   0  0  0  0  0  0  0  0  0  0  0  0
  198.6908  180.0576  154.9203 O   0  0  0  0  0  0  0  0  0  0  0  0
  198.5122  179.5528  153.6543 C   0  0  0  0  0  0  0  0  0  0  0  0
  197.3377  180.1045  153.0809 C   0  0  0  0  0  0  0  0  0  0  0  0
  197.0020  179.6904  151.7735 C   0  0  0  0  0  0  0  0  0  0  0  0
  197.8175  178.7657  151.0791 C   0  0  0  0  0  0  0  0  0  0  0  0
  198.9799  178.2383  151.6819 C   0  0  0  0  0  0  0  0  0  0  0  0
  199.3385  178.6362  152.9819 C   0  0  0  0  0  0  0  0  0  0  0  0
  196.8054  180.9995  154.0679 C   0  0  0  0  0  0  0  0  0  0  0  0
  196.1440  180.4429  157.3261 H   0  0  0  0  0  0  0  0  0  0  0  0
  193.4049  184.5535  160.1636 H   0  0  0  0  0  0  0  0  0  0  0  0
  197.4117  184.7328  158.5580 H   0  0  0  0  0  0  0  0  0  0  0  0
  197.9335  186.6218  160.0184 H   0  0  0  0  0  0  0  0  0  0  0  0
  196.2028  187.5355  161.5725 H   0  0  0  0  0  0  0  0  0  0  0  0
  195.1571  183.7121  157.3571 H   0  0  0  0  0  0  0  0  0  0  0  0
  193.5657  182.3146  157.6855 H   0  0  0  0  0  0  0  0  0  0  0  0
  197.1514  182.4814  158.7877 H   0  0  0  0  0  0  0  0  0  0  0  0
  195.8693  181.4211  159.2074 H   0  0  0  0  0  0  0  0  0  0  0  0
  198.3707  181.1424  157.1207 H   0  0  0  0  0  0  0  0  0  0  0  0
  196.8907  185.7749  154.8204 H   0  0  0  0  0  0  0  0  0  0  0  0
  198.7752  186.8648  156.0551 H   0  0  0  0  0  0  0  0  0  0  0  0
  200.2159  185.4382  157.5379 H   0  0  0  0  0  0  0  0  0  0  0  0
  199.7232  182.9944  157.7087 H   0  0  0  0  0  0  0  0  0  0  0  0
  196.1179  180.0922  151.3007 H   0  0  0  0  0  0  0  0  0  0  0  0
  197.5501  178.4568  150.0804 H   0  0  0  0  0  0  0  0  0  0  0  0
  199.5933  177.5258  151.1481 H   0  0  0  0  0  0  0  0  0  0  0  0
  200.2220  178.2480  153.4675 H   0  0  0  0  0  0  0  0  0  0  0  0
  195.9389  181.6365  153.9702 H   0  0  0  0  0  0  0  0  0  0  0  0
  195.6019  181.7599  156.4920 H   0  0  0  0  0  0  0  0  0  0  0  0
  1  2  1  0
  2  3  2  0
  2  7  1  0
  3  4  1  0
  3 29  1  0
  4  5  2  0
  4  8  1  0
  5  6  1  0
  5 30  1  0
  6  7  2  0
  6 31  1  0
  7 32  1  0
  8  9  1  0
  8 10  1  0
  8 33  1  6
  9 34  1  0
 10 11  1  0
 10 35  1  1
 10 36  1  0
 11 12  1  0
 11 28  1  1
 11 47  1  0
 12 13  1  0
 12 19  1  0
 12 37  1  1
 13 14  1  0
 13 18  2  0
 14 15  2  0
 15 16  1  0
 15 38  1  0
 16 17  2  0
 16 39  1  0
 17 18  1  0
 17 40  1  0
 18 41  1  0
 19 20  1  0
 19 27  2  0
 20 21  1  0
 21 22  1  0
 21 26  2  0
 22 23  2  0
 22 27  1  0
 23 24  1  0
 23 42  1  0
 24 25  2  0
 24 43  1  0
 25 26  1  0
 25 44  1  0
 26 45  1  0
 27 46  1  0
M  CHG  1  11   1
M  END
>  <s_epik_cmdline>  (25) 
J2VwaWtfcHl0aG9uJywgJy1waCcsICc3LjAwMDAwMCcsICctcGh0JywgJzIuMDAwMDAwJywgJy1tcycsICcxNicsICctdG4nLCAnOCcsICctbWEnLCAnMjAwJywgJy1pbWFlJywgJzxpbmZpbGUubWFlPicsICctb21hZScsICc8b3V0ZmlsZS5tYWU+Jw==

>  <s_epik_input>  (25) 
Q2xjMVtjSF1jKFtjSF1bY0hdW2NIXTEpW0NASF0oW09IXSlbQ0gyXVtOSF1bQ0BIXShjMm5bY0hdW2NIXVtjSF1bY0hdMiljKG8zKVtjSF1jKGMzNClbY0hdW2NIXVtjSF1bY0hdNA==

>  <s_i_glide_gridfile>  (25) 
ATP-Grid

>  <s_lp_Force_Field>  (25) 
OPLS_2005

>  <s_lp_Variant>  (25) 
m_269862bba____8257516____13192834-2

>  <s_lp_label>  (25) 
1077_sdstereoexpander_2_neutralizer_1_epik_1_stereoizer_1

>  <s_m_source_file>  (25) 
ATP-VSW-LIGPREP-002-in.maegz

>  <s_sd_BIOSOLVEIT.INFINISEE\_QUERY\_NAME>  (25) 
Ref-Lig

>  <s_sd_BIOSOLVEIT.INFINISEE\_QUERY\_SMILES>  (25) 
S(c1nc2c(cc1C[NH2+]Cc3ccc(cc3)C[NH+](C)C)cccc2)Cc4ccccc4

>  <s_sd_BIOSOLVEIT.INFINISEE\_REACTION\_NAME>  (25) 
m_269862bba

>  <s_sd_BIOSOLVEIT.INFINISEE\_REAGENT1\_SMILES>  (25) 
[R1*]NCC(O)c1cc(Cl)ccc1

>  <s_sd_BIOSOLVEIT.INFINISEE\_REAGENT2\_SMILES>  (25) 
[R1*]C(c1ncccc1)C=2Oc3c(cccc3)C2

>  <s_sd_BIOSOLVEIT.INFINISEE\_SPACE>  (25) 
REALSpace_44bn_2023-08

>  <s_vsw_compound_code>  (25) 
34434

>  <s_vsw_variant>  (25) 
34434-2

>  <r_epik_Charging_Adjusted_Penalty>  (25) 
0.12574514795471001

>  <r_epik_Ionization_Penalty>  (25) 
0.062899999999999998

>  <r_epik_Ionization_Penalty_Charging>  (25) 
0.062899999999999998

>  <r_epik_Ionization_Penalty_Neutral>  (25) 
0

>  <r_epik_State_Penalty>  (25) 
0.062899999999999998

>  <r_i_docking_score>  (25) 
-6.4687503210637898

>  <r_i_glide_ecoul>  (25) 
-15.1869411468506

>  <r_i_glide_eff_state_penalty>  (25) 
0.062899999999999998

>  <r_i_glide_einternal>  (25) 
7.9403195381164604

>  <r_i_glide_emodel>  (25) 
-73.565872235657096

>  <r_i_glide_energy>  (25) 
-48.603197097778299

>  <r_i_glide_erotb>  (25) 
0.67204726597247899

>  <r_i_glide_esite>  (25) 
-0.10000000000000001

>  <r_i_glide_evdw>  (25) 
-33.416255950927699

>  <r_i_glide_gscore>  (25) 
-6.5316503210637897

>  <r_i_glide_hbond>  (25) 
-0.28018996653106298

>  <r_i_glide_ligand_efficiency>  (25) 
-0.23958334522458499

>  <r_i_glide_ligand_efficiency_ln>  (25) 
-1.5058184290598

>  <r_i_glide_ligand_efficiency_sa>  (25) 
-0.71875003488412703

>  <r_i_glide_lipo>  (25) 
-1.8305111509312399

>  <r_i_glide_metal>  (25) 
-0

>  <r_i_glide_rewards>  (25) 
-1.0441425

>  <r_lp_Energy>  (25) 
11.539745999999999

>  <r_qp_ACxDN^.5/SA>  (25) 
0.0096641000000000001

>  <r_qp_CIQPlogS>  (25) 
-5.1680000000000001

>  <r_qp_EA(eV)>  (25) 
0.42199999999999999

>  <r_qp_FISA>  (25) 
52.396000000000001

>  <r_qp_FOSA>  (25) 
41.549999999999997

>  <r_qp_IP(eV)>  (25) 
8.7129999999999992

>  <r_qp_Jm>  (25) 
0.043350441263572299

>  <r_qp_PISA>  (25) 
522.25099999999998

>  <r_qp_PSA>  (25) 
51.195

>  <r_qp_PercentHumanOralAbsorption>  (25) 
100

>  <r_qp_QPPCaco>  (25) 
786.91200000000003

>  <r_qp_QPPMDCK>  (25) 
1042.0309999999999

>  <r_qp_QPlogBB>  (25) 
0.159

>  <r_qp_QPlogHERG>  (25) 
-8.1099999999999994

>  <r_qp_QPlogKhsa>  (25) 
0.58499999999999996

>  <r_qp_QPlogKp>  (25) 
-2.036

>  <r_qp_QPlogPC16>  (25) 
14.375

>  <r_qp_QPlogPo/w>  (25) 
4.633

>  <r_qp_QPlogPoct>  (25) 
19.672000000000001

>  <r_qp_QPlogPw>  (25) 
11.323

>  <r_qp_QPlogS>  (25) 
-4.9059999999999997

>  <r_qp_QPpolrz>  (25) 
42.206000000000003

>  <r_qp_SASA>  (25) 
687.78300000000002

>  <r_qp_SAamideO>  (25) 
0

>  <r_qp_SAfluorine>  (25) 
0

>  <r_qp_WPSA>  (25) 
71.584999999999994

>  <r_qp_accptHB>  (25) 
4.7000000000000002

>  <r_qp_dip^2/V>  (25) 
0.0049458000000000002

>  <r_qp_dipole>  (25) 
2.4319999999999999

>  <r_qp_donorHB>  (25) 
2

>  <r_qp_glob>  (25) 
0.79229190000000005

>  <r_qp_mol_MW>  (25) 
378.85700000000003

>  <r_qp_volume>  (25) 
1196.0709999999999

>  <r_sd_BIOSOLVEIT.INFINISEE\_FTREES\_SIMILARITY>  (25) 
0.91400000000000003

>  <r_sd_BIOSOLVEIT.LOGP>  (25) 
3.8675999999999999

>  <r_sd_BIOSOLVEIT.MOLECULAR\_WEIGHT>  (25) 
379.86500000000001

>  <r_sd_BIOSOLVEIT.TPSA>  (25) 
62.869999999999997

>  <i_epik_Tot_Q>  (25) 
1

>  <i_epik_Tot_abs_Q>  (25) 
1

>  <i_f3d_flags>  (25) 
0

>  <i_i_glide_confnum>  (25) 
4

>  <i_i_glide_lignum>  (25) 
346

>  <i_i_glide_posenum>  (25) 
20

>  <i_i_glide_rotatable_bonds>  (25) 
7

>  <i_lp_mmshare_version>  (25) 
65135

>  <i_m_ct_format>  (25) 
2

>  <i_m_source_file_index>  (25) 
1077

>  <i_qp_#NandO>  (25) 
4

>  <i_qp_#acid>  (25) 
0

>  <i_qp_#amide>  (25) 
0

>  <i_qp_#amidine>  (25) 
0

>  <i_qp_#amine>  (25) 
1

>  <i_qp_#in34>  (25) 
0

>  <i_qp_#in56>  (25) 
21

>  <i_qp_#metab>  (25) 
7

>  <i_qp_#nonHatm>  (25) 
27

>  <i_qp_#noncon>  (25) 
0

>  <i_qp_#ringatoms>  (25) 
21

>  <i_qp_#rotor>  (25) 
7

>  <i_qp_#rtvFG>  (25) 
0

>  <i_qp_#stars>  (25) 
1

>  <i_qp_CNS>  (25) 
1

>  <i_qp_HumanOralAbsorption>  (25) 
3

>  <i_qp_RuleOfFive>  (25) 
0

>  <i_qp_RuleOfThree>  (25) 
1

>  <i_sd_BIOSOLVEIT.INFINISEE\_REAGENT1\_NAME>  (25) 
8257516

>  <i_sd_BIOSOLVEIT.INFINISEE\_REAGENT2\_NAME>  (25) 
13192834

>  <i_sd_BIOSOLVEIT.INFINISEE\_RESULT\_RANK>  (25) 
31739

>  <i_sd_version>  (25) 
0

>  <b_lp_Chiralities_Consistent>  (25) 
1

>  <b_sd_chiral_flag>  (25) 
0

>  <acquisition_id>  (25) 
ATP-ACQ-0025

>  <canonical_id>  (25) 
ATP-HTVS-2AD5F3716208

>  <compound_code>  (25) 
34434

>  <title>  (25) 
m_269862bba____8257516____13192834

>  <variant>  (25) 
34434-2

>  <selection_arm>  (25) 
exploitation

>  <priority>  (25) 
P1

>  <wave>  (25) 
2

>  <source_file>  (25) 
运行/运行/ATP-VSW/ATP-VSW-DOCK_HTVS_1-002_lib.maegz

>  <canonical_smiles>  (25) 
O[C@H](C[NH2+][C@H](c1ccccn1)c1cc2ccccc2o1)c1cccc(Cl)c1

$$$$
ATP-ACQ-0026
     RDKit          3D

 50 53  0  0  0  0  0  0  0  0999 V2000
  197.0175  183.3771  151.4071 Cl  0  0  0  0  0  0  0  0  0  0  0  0
  197.0672  182.3554  152.8017 C   0  0  0  0  0  0  0  0  0  0  0  0
  197.1489  182.8960  154.1044 C   0  0  0  0  0  0  0  0  0  0  0  0
  197.2185  184.6586  154.3093 S   0  0  0  0  0  0  0  0  0  0  0  0
  198.2106  184.9200  155.7878 C   0  0  1  0  0  0  0  0  0  0  0  0
  198.2833  186.3621  156.1705 C   0  0  0  0  0  0  0  0  0  0  0  0
  199.0230  187.3522  155.4219 C   0  0  0  0  0  0  0  0  0  0  0  0
  198.9375  188.6580  155.9983 C   0  0  0  0  0  0  0  0  0  0  0  0
  197.9273  188.6440  157.4253 S   0  0  0  0  0  0  0  0  0  0  0  0
  197.6746  186.9271  157.2731 C   0  0  0  0  0  0  0  0  0  0  0  0
  196.8002  186.3657  158.3339 C   0  0  0  0  0  0  0  0  0  0  0  0
  195.7095  186.9051  158.5227 O   0  0  0  0  0  0  0  0  0  0  0  0
  197.2166  185.2910  159.0654 N   0  0  0  0  0  0  0  0  0  0  0  0
  198.5660  184.8277  159.0378 C   0  0  0  0  0  0  0  0  0  0  0  0
  198.8351  183.4789  158.7055 C   0  0  0  0  0  0  0  0  0  0  0  0
  200.1631  183.0410  158.5782 C   0  0  0  0  0  0  0  0  0  0  0  0
  201.2326  183.9010  158.8897 C   0  0  0  0  0  0  0  0  0  0  0  0
  200.9705  185.2291  159.2754 C   0  0  0  0  0  0  0  0  0  0  0  0
  199.6427  185.6907  159.3357 C   0  0  0  0  0  0  0  0  0  0  0  0
  196.2751  184.5904  159.9630 C   0  0  1  0  0  0  0  0  0  0  0  0
  195.0268  183.9976  159.2663 C   0  0  0  0  0  0  0  0  0  0  0  0
  193.9148  184.2155  159.7272 O   0  0  0  0  0  0  0  0  0  0  0  0
  195.2085  183.3344  158.1285 N   0  0  0  0  0  0  0  0  0  0  0  0
  199.5953  189.7641  155.4312 C   0  0  0  0  0  0  0  0  0  0  0  0
  200.3464  189.5958  154.2543 C   0  0  0  0  0  0  0  0  0  0  0  0
  200.4460  188.3246  153.6598 C   0  0  0  0  0  0  0  0  0  0  0  0
  199.7952  187.2236  154.2465 C   0  0  0  0  0  0  0  0  0  0  0  0
  197.1661  182.0223  155.2219 C   0  0  0  0  0  0  0  0  0  0  0  0
  197.1339  180.6289  155.0369 C   0  0  0  0  0  0  0  0  0  0  0  0
  197.0681  180.0975  153.7366 C   0  0  0  0  0  0  0  0  0  0  0  0
  197.0320  180.9580  152.6228 C   0  0  0  0  0  0  0  0  0  0  0  0
  197.7032  184.3621  156.5505 H   0  0  0  0  0  0  0  0  0  0  0  0
  199.2139  184.5045  155.6356 H   0  0  0  0  0  0  0  0  0  0  0  0
  198.0287  182.7964  158.4861 H   0  0  0  0  0  0  0  0  0  0  0  0
  200.3617  182.0341  158.2513 H   0  0  0  0  0  0  0  0  0  0  0  0
  202.2497  183.5488  158.7939 H   0  0  0  0  0  0  0  0  0  0  0  0
  201.7891  185.8915  159.5000 H   0  0  0  0  0  0  0  0  0  0  0  0
  199.4588  186.7211  159.6211 H   0  0  0  0  0  0  0  0  0  0  0  0
  196.7729  183.7718  160.4896 H   0  0  0  0  0  0  0  0  0  0  0  0
  195.9634  185.2801  160.7448 H   0  0  0  0  0  0  0  0  0  0  0  0
  196.1309  183.1902  157.7568 H   0  0  0  0  0  0  0  0  0  0  0  0
  194.4041  183.0121  157.5840 H   0  0  0  0  0  0  0  0  0  0  0  0
  199.5024  190.7353  155.9009 H   0  0  0  0  0  0  0  0  0  0  0  0
  200.8455  190.4417  153.8079 H   0  0  0  0  0  0  0  0  0  0  0  0
  201.0167  188.1877  152.7513 H   0  0  0  0  0  0  0  0  0  0  0  0
  199.8684  186.2523  153.7793 H   0  0  0  0  0  0  0  0  0  0  0  0
  197.1985  182.3689  156.2410 H   0  0  0  0  0  0  0  0  0  0  0  0
  197.1422  179.9660  155.8922 H   0  0  0  0  0  0  0  0  0  0  0  0
  197.0292  179.0302  153.5930 H   0  0  0  0  0  0  0  0  0  0  0  0
  196.9675  180.5482  151.6240 H   0  0  0  0  0  0  0  0  0  0  0  0
  1  2  1  0
  2  3  1  0
  2 31  2  0
  3  4  1  0
  3 28  2  0
  4  5  1  0
  5  6  1  0
  5 32  1  1
  5 33  1  0
  6  7  1  0
  6 10  2  0
  7  8  1  0
  7 27  2  0
  8  9  1  0
  8 24  2  0
  9 10  1  0
 10 11  1  0
 11 12  2  0
 11 13  1  0
 13 14  1  0
 13 20  1  0
 14 15  2  0
 14 19  1  0
 15 16  1  0
 15 34  1  0
 16 17  2  0
 16 35  1  0
 17 18  1  0
 17 36  1  0
 18 19  2  0
 18 37  1  0
 19 38  1  0
 20 21  1  0
 20 39  1  1
 20 40  1  0
 21 22  2  0
 21 23  1  0
 23 41  1  0
 23 42  1  0
 24 25  1  0
 24 43  1  0
 25 26  2  0
 25 44  1  0
 26 27  1  0
 26 45  1  0
 27 46  1  0
 28 29  1  0
 28 47  1  0
 29 30  2  0
 29 48  1  0
 30 31  1  0
 30 49  1  0
 31 50  1  0
M  END
>  <s_epik_cmdline>  (26) 
J2VwaWtfcHl0aG9uJywgJy1waCcsICc3LjAwMDAwMCcsICctcGh0JywgJzIuMDAwMDAwJywgJy1tcycsICcxNicsICctdG4nLCAnOCcsICctbWEnLCAnMjAwJywgJy1pbWFlJywgJzxpbmZpbGUubWFlPicsICctb21hZScsICc8b3V0ZmlsZS5tYWU+Jw==

>  <s_epik_input>  (26) 
W2NIXTFbY0hdW2NIXVtjSF1jKGMxQ2wpU1tDSDJdYzJjKHNjKGMyMylbY0hdW2NIXVtjSF1bY0hdMylDKD1PKU4oW0NIMl1DKD1PKVtOSDJdKWM0W2NIXVtjSF1bY0hdW2NIXVtjSF00

>  <s_i_glide_gridfile>  (26) 
ATP-Grid

>  <s_lp_Force_Field>  (26) 
OPLS_2005

>  <s_lp_Variant>  (26) 
m_11bca____235000____2768258-1

>  <s_lp_label>  (26) 
2090_sdstereoexpander_1_neutralizer_1_epik_1_stereoizer_1

>  <s_m_source_file>  (26) 
ATP-VSW-LIGPREP-001-in.maegz

>  <s_sd_BIOSOLVEIT.INFINISEE\_QUERY\_NAME>  (26) 
Ref-Lig

>  <s_sd_BIOSOLVEIT.INFINISEE\_QUERY\_SMILES>  (26) 
S(c1nc2c(cc1C[NH2+]Cc3ccc(cc3)C[NH+](C)C)cccc2)Cc4ccccc4

>  <s_sd_BIOSOLVEIT.INFINISEE\_REACTION\_NAME>  (26) 
m_11bca

>  <s_sd_BIOSOLVEIT.INFINISEE\_REAGENT1\_SMILES>  (26) 
[R1*]N(c1ccccc1)CC(=O)N

>  <s_sd_BIOSOLVEIT.INFINISEE\_REAGENT2\_SMILES>  (26) 
[R1*]C(=O)C=1Sc2c(cccc2)C1CSc3c(Cl)cccc3

>  <s_sd_BIOSOLVEIT.INFINISEE\_SPACE>  (26) 
REALSpace_44bn_2023-08

>  <s_vsw_compound_code>  (26) 
66849

>  <s_vsw_variant>  (26) 
66849-1

>  <r_epik_Charging_Adjusted_Penalty>  (26) 
0

>  <r_epik_Ionization_Penalty>  (26) 
0

>  <r_epik_Ionization_Penalty_Charging>  (26) 
0

>  <r_epik_Ionization_Penalty_Neutral>  (26) 
0

>  <r_epik_State_Penalty>  (26) 
-0

>  <r_i_docking_score>  (26) 
-3.8395846393057602

>  <r_i_glide_ecoul>  (26) 
-3.3650102615356401

>  <r_i_glide_eff_state_penalty>  (26) 
-0

>  <r_i_glide_einternal>  (26) 
6.6561980247497603

>  <r_i_glide_emodel>  (26) 
-49.134406325803297

>  <r_i_glide_energy>  (26) 
-41.981862068176298

>  <r_i_glide_erotb>  (26) 
0.64767398259669995

>  <r_i_glide_esite>  (26) 
-0.053933295972398702

>  <r_i_glide_evdw>  (26) 
-38.616851806640597

>  <r_i_glide_gscore>  (26) 
-3.8395846393057602

>  <r_i_glide_hbond>  (26) 
-0.103848634455647

>  <r_i_glide_ligand_efficiency>  (26) 
-0.123857569009863

>  <r_i_glide_ligand_efficiency_ln>  (26) 
-0.86594400530111404

>  <r_i_glide_ligand_efficiency_sa>  (26) 
-0.38908377049444598

>  <r_i_glide_lipo>  (26) 
-0.99033189448423697

>  <r_i_glide_metal>  (26) 
-0

>  <r_i_glide_rewards>  (26) 
-0.90355066742779799

>  <r_lp_Energy>  (26) 
33.897609000000003

>  <r_lp_tautomer_probability>  (26) 
1

>  <r_qp_ACxDN^.5/SA>  (26) 
0.0128828

>  <r_qp_CIQPlogS>  (26) 
-6.859

>  <r_qp_EA(eV)>  (26) 
0.83699999999999997

>  <r_qp_FISA>  (26) 
72.578000000000003

>  <r_qp_FOSA>  (26) 
45.088000000000001

>  <r_qp_IP(eV)>  (26) 
8.4619999999999997

>  <r_qp_Jm>  (26) 
0.55572637576828199

>  <r_qp_PISA>  (26) 
439.26299999999998

>  <r_qp_PSA>  (26) 
73.132000000000005

>  <r_qp_PercentHumanOralAbsorption>  (26) 
100

>  <r_qp_QPPCaco>  (26) 
1965.8009999999999

>  <r_qp_QPPMDCK>  (26) 
3838.0259999999998

>  <r_qp_QPlogBB>  (26) 
-0.25700000000000001

>  <r_qp_QPlogHERG>  (26) 
-4.4580000000000002

>  <r_qp_QPlogKhsa>  (26) 
0.28699999999999998

>  <r_qp_QPlogKp>  (26) 
-0.63800000000000001

>  <r_qp_QPlogPC16>  (26) 
14.837999999999999

>  <r_qp_QPlogPo/w>  (26) 
4.4420000000000002

>  <r_qp_QPlogPoct>  (26) 
22.131

>  <r_qp_QPlogPw>  (26) 
12.247999999999999

>  <r_qp_QPlogS>  (26) 
-5.2869999999999999

>  <r_qp_QPpolrz>  (26) 
44.603000000000002

>  <r_qp_SASA>  (26) 
658.65200000000004

>  <r_qp_SAamideO>  (26) 
1.7709999999999999

>  <r_qp_SAfluorine>  (26) 
0

>  <r_qp_WPSA>  (26) 
101.723

>  <r_qp_accptHB>  (26) 
6

>  <r_qp_dip^2/V>  (26) 
0.040411099999999998

>  <r_qp_dipole>  (26) 
7.1799999999999997

>  <r_qp_donorHB>  (26) 
2

>  <r_qp_glob>  (26) 
0.86369079999999998

>  <r_qp_mol_MW>  (26) 
466.99900000000002

>  <r_qp_volume>  (26) 
1275.7739999999999

>  <r_sd_BIOSOLVEIT.INFINISEE\_FTREES\_SIMILARITY>  (26) 
0.90100000000000002

>  <r_sd_BIOSOLVEIT.LOGP>  (26) 
5.9790999999999999

>  <r_sd_BIOSOLVEIT.MOLECULAR\_WEIGHT>  (26) 
467.00900000000001

>  <r_sd_BIOSOLVEIT.TPSA>  (26) 
63.399999999999999

>  <i_epik_Tot_Q>  (26) 
0

>  <i_epik_Tot_abs_Q>  (26) 
0

>  <i_f3d_flags>  (26) 
0

>  <i_i_glide_confnum>  (26) 
9

>  <i_i_glide_lignum>  (26) 
654

>  <i_i_glide_posenum>  (26) 
1

>  <i_i_glide_rotatable_bonds>  (26) 
8

>  <i_lp_mmshare_version>  (26) 
65135

>  <i_m_ct_format>  (26) 
2

>  <i_m_source_file_index>  (26) 
2090

>  <i_qp_#NandO>  (26) 
4

>  <i_qp_#acid>  (26) 
0

>  <i_qp_#amide>  (26) 
1

>  <i_qp_#amidine>  (26) 
0

>  <i_qp_#amine>  (26) 
0

>  <i_qp_#in34>  (26) 
0

>  <i_qp_#in56>  (26) 
21

>  <i_qp_#metab>  (26) 
5

>  <i_qp_#nonHatm>  (26) 
31

>  <i_qp_#noncon>  (26) 
0

>  <i_qp_#ringatoms>  (26) 
21

>  <i_qp_#rotor>  (26) 
7

>  <i_qp_#rtvFG>  (26) 
0

>  <i_qp_#stars>  (26) 
0

>  <i_qp_CNS>  (26) 
0

>  <i_qp_HumanOralAbsorption>  (26) 
3

>  <i_qp_RuleOfFive>  (26) 
0

>  <i_qp_RuleOfThree>  (26) 
0

>  <i_sd_BIOSOLVEIT.INFINISEE\_REAGENT1\_NAME>  (26) 
235000

>  <i_sd_BIOSOLVEIT.INFINISEE\_REAGENT2\_NAME>  (26) 
2768258

>  <i_sd_BIOSOLVEIT.INFINISEE\_RESULT\_RANK>  (26) 
96683

>  <i_sd_version>  (26) 
0

>  <b_lp_Chiralities_Consistent>  (26) 
1

>  <b_sd_chiral_flag>  (26) 
0

>  <acquisition_id>  (26) 
ATP-ACQ-0026

>  <canonical_id>  (26) 
ATP-HTVS-48C487957C1E

>  <compound_code>  (26) 
66849

>  <title>  (26) 
m_11bca____235000____2768258

>  <variant>  (26) 
66849-1

>  <selection_arm>  (26) 
descriptor_diversity

>  <priority>  (26) 
P1

>  <wave>  (26) 
2

>  <source_file>  (26) 
运行/运行/ATP-VSW/ATP-VSW-DOCK_HTVS_1-001_lib/ATP-VSW-DOCK_HTVS_1-001_lib

>  <canonical_smiles>  (26) 
NC(=O)CN(C(=O)c1sc2ccccc2c1CSc1ccccc1Cl)c1ccccc1

$$$$
ATP-ACQ-0027
     RDKit          3D

 63 66  0  0  0  0  0  0  0  0999 V2000
  197.1445  185.7298  156.0547 S   0  0  0  0  0  0  0  0  0  0  0  0
  198.4256  186.2156  155.0829 C   0  0  0  0  0  0  0  0  0  0  0  0
  199.1065  185.0850  154.5571 C   0  0  0  0  0  0  0  0  0  0  0  0
  200.0853  185.3470  153.5458 C   0  0  0  0  0  0  0  0  0  0  0  0
  200.3584  186.6547  153.1108 C   0  0  0  0  0  0  0  0  0  0  0  0
  199.7453  187.7553  153.7297 C   0  0  0  0  0  0  0  0  0  0  0  0
  198.7927  187.5259  154.7533 C   0  0  0  0  0  0  0  0  0  0  0  0
  198.5960  183.8530  155.1608 C   0  0  0  0  0  0  0  0  0  0  0  0
  199.0966  182.4990  154.7176 N   0  0  1  0  0  0  0  0  0  0  0  0
  198.8690  182.2594  153.2573 C   0  0  1  0  0  0  0  0  0  0  0  0
  199.4051  180.9234  152.7724 C   0  0  0  0  0  0  0  0  0  0  0  0
  198.5659  179.8028  152.5803 C   0  0  0  0  0  0  0  0  0  0  0  0
  199.1410  178.5654  152.2211 C   0  0  0  0  0  0  0  0  0  0  0  0
  200.5353  178.4371  152.0668 C   0  0  0  0  0  0  0  0  0  0  0  0
  201.3682  179.5550  152.2436 C   0  0  0  0  0  0  0  0  0  0  0  0
  200.7993  180.7879  152.5802 C   0  0  0  0  0  0  0  0  0  0  0  0
  197.0584  179.8957  152.7614 C   0  0  2  0  0  0  0  0  0  0  0  0
  200.4690  182.1467  155.1975 C   0  0  1  0  0  0  0  0  0  0  0  0
  200.5864  182.0503  156.7123 C   0  0  2  0  0  0  0  0  0  0  0  0
  197.6235  184.0786  156.0980 C   0  0  0  0  0  0  0  0  0  0  0  0
  196.9019  183.1182  156.9769 C   0  0  0  0  0  0  0  0  0  0  0  0
  196.7311  182.0106  156.4724 O   0  0  0  0  0  0  0  0  0  0  0  0
  196.5716  183.3665  158.2821 N   0  0  0  0  0  0  0  0  0  0  0  0
  196.6188  184.6386  158.9467 C   0  0  0  0  0  0  0  0  0  0  0  0
  195.5437  185.0928  159.7440 C   0  0  0  0  0  0  0  0  0  0  0  0
  195.5506  186.3883  160.3024 C   0  0  0  0  0  0  0  0  0  0  0  0
  196.6358  187.2518  160.0553 C   0  0  0  0  0  0  0  0  0  0  0  0
  197.7180  186.8086  159.2974 C   0  0  0  0  0  0  0  0  0  0  0  0
  197.7268  185.5022  158.7891 C   0  0  0  0  0  0  0  0  0  0  0  0
  196.1101  182.2501  159.1288 C   0  0  1  0  0  0  0  0  0  0  0  0
  194.5970  181.9297  159.0258 C   0  0  1  0  0  0  0  0  0  0  0  0
  194.2183  181.3771  157.7355 N   0  0  2  0  0  0  0  0  0  0  0  0
  193.2288  181.2395  157.6929 H   0  0  0  0  0  0  0  0  0  0  0  0
  194.7535  180.5368  157.5642 H   0  0  0  0  0  0  0  0  0  0  0  0
  200.5998  184.5327  153.0523 H   0  0  0  0  0  0  0  0  0  0  0  0
  201.0587  186.8015  152.3170 H   0  0  0  0  0  0  0  0  0  0  0  0
  199.9569  188.7684  153.3957 H   0  0  0  0  0  0  0  0  0  0  0  0
  198.2733  188.3648  155.1924 H   0  0  0  0  0  0  0  0  0  0  0  0
  197.8094  182.3745  153.0300 H   0  0  0  0  0  0  0  0  0  0  0  0
  199.3462  183.0054  152.6338 H   0  0  0  0  0  0  0  0  0  0  0  0
  198.5098  177.7060  152.0542 H   0  0  0  0  0  0  0  0  0  0  0  0
  200.9643  177.4802  151.7966 H   0  0  0  0  0  0  0  0  0  0  0  0
  202.4444  179.4492  152.1809 H   0  0  0  0  0  0  0  0  0  0  0  0
  201.4609  181.6237  152.7485 H   0  0  0  0  0  0  0  0  0  0  0  0
  196.5845  178.9225  152.6243 H   0  0  0  0  0  0  0  0  0  0  0  0
  196.6401  180.5718  152.0146 H   0  0  0  0  0  0  0  0  0  0  0  0
  196.7890  180.2624  153.7555 H   0  0  0  0  0  0  0  0  0  0  0  0
  200.7186  181.1332  154.9038 H   0  0  0  0  0  0  0  0  0  0  0  0
  201.2129  182.8271  154.7682 H   0  0  0  0  0  0  0  0  0  0  0  0
  201.5690  181.6411  156.9588 H   0  0  0  0  0  0  0  0  0  0  0  0
  199.8344  181.3612  157.1062 H   0  0  0  0  0  0  0  0  0  0  0  0
  200.4824  183.0290  157.1799 H   0  0  0  0  0  0  0  0  0  0  0  0
  194.6627  184.5045  159.9393 H   0  0  0  0  0  0  0  0  0  0  0  0
  194.7213  186.7033  160.9320 H   0  0  0  0  0  0  0  0  0  0  0  0
  196.6286  188.2530  160.4607 H   0  0  0  0  0  0  0  0  0  0  0  0
  198.5114  187.4706  159.0277 H   0  0  0  0  0  0  0  0  0  0  0  0
  198.5952  185.1764  158.1953 H   0  0  0  0  0  0  0  0  0  0  0  0
  196.6813  181.3417  158.9301 H   0  0  0  0  0  0  0  0  0  0  0  0
  196.3446  182.4965  160.1639 H   0  0  0  0  0  0  0  0  0  0  0  0
  194.3377  181.1976  159.7934 H   0  0  0  0  0  0  0  0  0  0  0  0
  193.9679  182.8037  159.2220 H   0  0  0  0  0  0  0  0  0  0  0  0
  194.4298  182.0859  157.0086 H   0  0  0  0  0  0  0  0  0  0  0  0
  198.4996  181.8001  155.1544 H   0  0  0  0  0  0  0  0  0  0  0  0
  1  2  1  0
  1 20  1  0
  2  3  1  0
  2  7  2  0
  3  4  2  0
  3  8  1  0
  4  5  1  0
  4 35  1  0
  5  6  2  0
  5 36  1  0
  6  7  1  0
  6 37  1  0
  7 38  1  0
  8  9  1  0
  8 20  2  0
  9 10  1  0
  9 18  1  0
  9 63  1  1
 10 11  1  0
 10 39  1  1
 10 40  1  0
 11 12  1  0
 11 16  2  0
 12 13  2  0
 12 17  1  0
 13 14  1  0
 13 41  1  0
 14 15  2  0
 14 42  1  0
 15 16  1  0
 15 43  1  0
 16 44  1  0
 17 45  1  6
 17 46  1  0
 17 47  1  0
 18 19  1  0
 18 48  1  6
 18 49  1  0
 19 50  1  6
 19 51  1  0
 19 52  1  0
 20 21  1  0
 21 22  2  0
 21 23  1  0
 23 24  1  0
 23 30  1  0
 24 25  2  0
 24 29  1  0
 25 26  1  0
 25 53  1  0
 26 27  2  0
 26 54  1  0
 27 28  1  0
 27 55  1  0
 28 29  2  0
 28 56  1  0
 29 57  1  0
 30 31  1  0
 30 58  1  6
 30 59  1  0
 31 32  1  0
 31 60  1  1
 31 61  1  0
 32 33  1  1
 32 34  1  0
 32 62  1  0
M  CHG  2   9   1  32   1
M  END
>  <s_epik_cmdline>  (27) 
J2VwaWtfcHl0aG9uJywgJy1waCcsICc3LjAwMDAwMCcsICctcGh0JywgJzIuMDAwMDAwJywgJy1tcycsICcxNicsICctdG4nLCAnOCcsICctbWEnLCAnMjAwJywgJy1pbWFlJywgJzxpbmZpbGUubWFlPicsICctb21hZScsICc8b3V0ZmlsZS5tYWU+Jw==

>  <s_epik_input>  (27) 
W2NIXTFbY0hdW2NIXVtjSF1bY0hdYzFOKFtDSDJdW0NIMl1bTkgyXSlDKD1PKWMoczIpYyhjKGMyMylbY0hdW2NIXVtjSF1bY0hdMylOKFtDSDJdW0NIM10pW0NIMl1jNGMoW0NIM10pW2NIXVtjSF1bY0hdW2NIXTQ=

>  <s_i_glide_gridfile>  (27) 
ATP-Grid

>  <s_lp_Force_Field>  (27) 
OPLS_2005

>  <s_lp_Variant>  (27) 
rxn512c____EMOL530647____EMOL523944____EMOL17023805-2

>  <s_lp_label>  (27) 
2803_sdstereoexpander_1_neutralizer_1_epik_2_stereoizer_1

>  <s_m_source_file>  (27) 
ATP-VSW-LIGPREP-001-in.maegz

>  <s_sd_BIOSOLVEIT.INFINISEE\_QUERY\_NAME>  (27) 
Ref-Lig

>  <s_sd_BIOSOLVEIT.INFINISEE\_QUERY\_SMILES>  (27) 
S(c1nc2c(cc1C[NH2+]Cc3ccc(cc3)C[NH+](C)C)cccc2)Cc4ccccc4

>  <s_sd_BIOSOLVEIT.INFINISEE\_REACTION\_NAME>  (27) 
rxn512c

>  <s_sd_BIOSOLVEIT.INFINISEE\_REAGENT1\_NAME>  (27) 
EMOL530647

>  <s_sd_BIOSOLVEIT.INFINISEE\_REAGENT1\_SMILES>  (27) 
N(c1ccccc1)CCN

>  <s_sd_BIOSOLVEIT.INFINISEE\_REAGENT2\_NAME>  (27) 
EMOL523944

>  <s_sd_BIOSOLVEIT.INFINISEE\_REAGENT2\_SMILES>  (27) 
ClC=1c2c(SC1C(=O)O)cccc2

>  <s_sd_BIOSOLVEIT.INFINISEE\_REAGENT3\_NAME>  (27) 
EMOL17023805

>  <s_sd_BIOSOLVEIT.INFINISEE\_REAGENT3\_SMILES>  (27) 
N(Cc1c(cccc1)C)CC

>  <s_sd_BIOSOLVEIT.INFINISEE\_SPACE>  (27) 
eXplore_7tr_2022-12

>  <s_vsw_compound_code>  (27) 
89665

>  <s_vsw_variant>  (27) 
89665-2

>  <r_epik_Charging_Adjusted_Penalty>  (27) 
2.5642301349191898

>  <r_epik_Ionization_Penalty>  (27) 
1.3258000000000001

>  <r_epik_Ionization_Penalty_Charging>  (27) 
1.3258000000000001

>  <r_epik_Ionization_Penalty_Neutral>  (27) 
0

>  <r_epik_State_Penalty>  (27) 
1.2384999999999999

>  <r_i_docking_score>  (27) 
-4.3345588216178301

>  <r_i_glide_ecoul>  (27) 
-12.9758625030518

>  <r_i_glide_eff_state_penalty>  (27) 
1.2384999999999999

>  <r_i_glide_einternal>  (27) 
12.2181100845337

>  <r_i_glide_emodel>  (27) 
-58.894178539829198

>  <r_i_glide_energy>  (27) 
-41.127973556518597

>  <r_i_glide_erotb>  (27) 
0.49374902695039102

>  <r_i_glide_esite>  (27) 
-0.14164606175408101

>  <r_i_glide_evdw>  (27) 
-28.1521110534668

>  <r_i_glide_gscore>  (27) 
-5.5730588216178303

>  <r_i_glide_hbond>  (27) 
-0.352456414419001

>  <r_i_glide_ligand_efficiency>  (27) 
-0.135454963175557

>  <r_i_glide_ligand_efficiency_ln>  (27) 
-0.97062587577118997

>  <r_i_glide_ligand_efficiency_sa>  (27) 
-0.43004270158158198

>  <r_i_glide_lipo>  (27) 
-1.31795139880949

>  <r_i_glide_metal>  (27) 
-0

>  <r_i_glide_rewards>  (27) 
-0.90076904545454395

>  <r_lp_Energy>  (27) 
46.104193000000002

>  <r_qp_ACxDN^.5/SA>  (27) 
0.0098677999999999995

>  <r_qp_CIQPlogS>  (27) 
-5.3159999999999998

>  <r_qp_EA(eV)>  (27) 
0.91000000000000003

>  <r_qp_FISA>  (27) 
66.364999999999995

>  <r_qp_FOSA>  (27) 
203.84800000000001

>  <r_qp_IP(eV)>  (27) 
8.8149999999999995

>  <r_qp_Jm>  (27) 
0.00416491113250255

>  <r_qp_PISA>  (27) 
428.77300000000002

>  <r_qp_PSA>  (27) 
53.152000000000001

>  <r_qp_PercentHumanOralAbsorption>  (27) 
93.593000000000004

>  <r_qp_QPPCaco>  (27) 
144.66499999999999

>  <r_qp_QPPMDCK>  (27) 
93.531999999999996

>  <r_qp_QPlogBB>  (27) 
0.23100000000000001

>  <r_qp_QPlogHERG>  (27) 
-7.6520000000000001

>  <r_qp_QPlogKhsa>  (27) 
0.97299999999999998

>  <r_qp_QPlogKp>  (27) 
-4.4930000000000003

>  <r_qp_QPlogPC16>  (27) 
15.08

>  <r_qp_QPlogPo/w>  (27) 
4.7789999999999999

>  <r_qp_QPlogPoct>  (27) 
21.713999999999999

>  <r_qp_QPlogPw>  (27) 
10.686999999999999

>  <r_qp_QPlogS>  (27) 
-3.5339999999999998

>  <r_qp_QPpolrz>  (27) 
47.523000000000003

>  <r_qp_SASA>  (27) 
716.58199999999999

>  <r_qp_SAamideO>  (27) 
0

>  <r_qp_SAfluorine>  (27) 
0

>  <r_qp_WPSA>  (27) 
17.597000000000001

>  <r_qp_accptHB>  (27) 
5

>  <r_qp_dip^2/V>  (27) 
0.0177135

>  <r_qp_dipole>  (27) 
4.9500000000000002

>  <r_qp_donorHB>  (27) 
2

>  <r_qp_glob>  (27) 
0.8378814

>  <r_qp_mol_MW>  (27) 
443.60599999999999

>  <r_qp_volume>  (27) 
1383.328

>  <r_sd_BIOSOLVEIT.INFINISEE\_FTREES\_SIMILARITY>  (27) 
0.90600000000000003

>  <r_sd_BIOSOLVEIT.LOGP>  (27) 
5.1249200000000004

>  <r_sd_BIOSOLVEIT.MOLECULAR\_WEIGHT>  (27) 
444.61900000000003

>  <r_sd_BIOSOLVEIT.TPSA>  (27) 
51.189999999999998

>  <i_epik_Tot_Q>  (27) 
2

>  <i_epik_Tot_abs_Q>  (27) 
2

>  <i_f3d_flags>  (27) 
0

>  <i_i_glide_confnum>  (27) 
7

>  <i_i_glide_lignum>  (27) 
1277

>  <i_i_glide_posenum>  (27) 
9

>  <i_i_glide_rotatable_bonds>  (27) 
9

>  <i_lp_mmshare_version>  (27) 
65135

>  <i_m_ct_format>  (27) 
2

>  <i_m_source_file_index>  (27) 
2803

>  <i_qp_#NandO>  (27) 
4

>  <i_qp_#acid>  (27) 
0

>  <i_qp_#amide>  (27) 
0

>  <i_qp_#amidine>  (27) 
0

>  <i_qp_#amine>  (27) 
2

>  <i_qp_#in34>  (27) 
0

>  <i_qp_#in56>  (27) 
21

>  <i_qp_#metab>  (27) 
7

>  <i_qp_#nonHatm>  (27) 
32

>  <i_qp_#noncon>  (27) 
0

>  <i_qp_#ringatoms>  (27) 
21

>  <i_qp_#rotor>  (27) 
9

>  <i_qp_#rtvFG>  (27) 
0

>  <i_qp_#stars>  (27) 
0

>  <i_qp_CNS>  (27) 
1

>  <i_qp_HumanOralAbsorption>  (27) 
3

>  <i_qp_RuleOfFive>  (27) 
0

>  <i_qp_RuleOfThree>  (27) 
1

>  <i_sd_BIOSOLVEIT.INFINISEE\_RESULT\_RANK>  (27) 
63824

>  <i_sd_version>  (27) 
0

>  <b_lp_Chiralities_Consistent>  (27) 
1

>  <b_sd_chiral_flag>  (27) 
0

>  <acquisition_id>  (27) 
ATP-ACQ-0027

>  <canonical_id>  (27) 
ATP-HTVS-593FD885E4E3

>  <compound_code>  (27) 
89665

>  <title>  (27) 
rxn512c____EMOL530647____EMOL523944____EMOL17023805

>  <variant>  (27) 
89665-2

>  <selection_arm>  (27) 
score_calibration

>  <priority>  (27) 
P1

>  <wave>  (27) 
2

>  <source_file>  (27) 
运行/运行/ATP-VSW/ATP-VSW-DOCK_HTVS_1-001_lib/ATP-VSW-DOCK_HTVS_1-001_lib

>  <canonical_smiles>  (27) 
CC[N@H+](Cc1ccccc1C)c1c(C(=O)N(CC[NH3+])c2ccccc2)sc2ccccc12

$$$$
ATP-ACQ-0028
     RDKit          3D

 56 58  0  0  0  0  0  0  0  0999 V2000
  196.9532  183.4024  156.0788 O   0  0  0  0  0  0  0  0  0  0  0  0
  196.5557  182.3489  156.5650 C   0  0  0  0  0  0  0  0  0  0  0  0
  196.0952  182.2522  157.8283 N   0  0  0  0  0  0  0  0  0  0  0  0
  195.8229  183.3578  158.6756 C   0  0  0  0  0  0  0  0  0  0  0  0
  196.8341  184.1975  159.2284 C   0  0  0  0  0  0  0  0  0  0  0  0
  196.4213  185.2426  160.0925 C   0  0  0  0  0  0  0  0  0  0  0  0
  195.0519  185.4022  160.3785 C   0  0  0  0  0  0  0  0  0  0  0  0
  194.6320  186.3930  161.2544 O   0  0  0  0  0  0  0  0  0  0  0  0
  193.2165  186.5330  161.4702 C   0  0  1  0  0  0  0  0  0  0  0  0
  192.8748  187.5246  162.5568 C   0  0  0  0  0  0  0  0  0  0  0  0
  191.9527  187.1769  163.5690 C   0  0  0  0  0  0  0  0  0  0  0  0
  191.6130  188.1131  164.5645 C   0  0  0  0  0  0  0  0  0  0  0  0
  192.1926  189.3965  164.5492 C   0  0  0  0  0  0  0  0  0  0  0  0
  193.0970  189.7534  163.5299 C   0  0  0  0  0  0  0  0  0  0  0  0
  193.4321  188.8183  162.5324 C   0  0  0  0  0  0  0  0  0  0  0  0
  194.1071  184.5884  159.8616 N   0  0  0  0  0  0  0  0  0  0  0  0
  194.4850  183.6019  159.0366 C   0  0  0  0  0  0  0  0  0  0  0  0
  198.3153  183.9857  158.9547 C   0  0  2  0  0  0  0  0  0  0  0  0
  196.5322  181.1667  155.9501 N   0  0  0  0  0  0  0  0  0  0  0  0
  197.0903  180.8797  154.6465 C   0  0  0  0  0  0  0  0  0  0  0  0
  197.8108  179.6695  154.4635 C   0  0  0  0  0  0  0  0  0  0  0  0
  198.3082  179.3793  153.1651 C   0  0  0  0  0  0  0  0  0  0  0  0
  198.1324  180.2768  152.0967 C   0  0  0  0  0  0  0  0  0  0  0  0
  197.4750  181.4999  152.3183 C   0  0  0  0  0  0  0  0  0  0  0  0
  196.9456  181.7905  153.5939 C   0  0  0  0  0  0  0  0  0  0  0  0
  198.0844  178.6925  155.5965 C   0  0  1  0  0  0  0  0  0  0  0  0
  199.1928  179.0742  156.5357 N   0  0  2  0  0  0  0  0  0  0  0  0
  199.2476  180.4750  156.9962 C   0  0  2  0  0  0  0  0  0  0  0  0
  200.5300  178.6455  156.0597 C   0  0  2  0  0  0  0  0  0  0  0  0
  195.7202  181.3588  158.1084 H   0  0  0  0  0  0  0  0  0  0  0  0
  197.1395  185.9099  160.5582 H   0  0  0  0  0  0  0  0  0  0  0  0
  192.7381  186.8513  160.5438 H   0  0  0  0  0  0  0  0  0  0  0  0
  192.7673  185.5874  161.7636 H   0  0  0  0  0  0  0  0  0  0  0  0
  191.5023  186.1937  163.5903 H   0  0  0  0  0  0  0  0  0  0  0  0
  190.9161  187.8435  165.3432 H   0  0  0  0  0  0  0  0  0  0  0  0
  191.9394  190.1110  165.3190 H   0  0  0  0  0  0  0  0  0  0  0  0
  193.5349  190.7393  163.5059 H   0  0  0  0  0  0  0  0  0  0  0  0
  194.1128  189.0864  161.7369 H   0  0  0  0  0  0  0  0  0  0  0  0
  193.6930  182.9594  158.6716 H   0  0  0  0  0  0  0  0  0  0  0  0
  198.9372  184.7095  159.4978 H   0  0  0  0  0  0  0  0  0  0  0  0
  198.5201  184.1029  157.8916 H   0  0  0  0  0  0  0  0  0  0  0  0
  198.6002  182.9747  159.2613 H   0  0  0  0  0  0  0  0  0  0  0  0
  196.2369  180.3705  156.5319 H   0  0  0  0  0  0  0  0  0  0  0  0
  198.8295  178.4430  152.9940 H   0  0  0  0  0  0  0  0  0  0  0  0
  198.5033  180.0207  151.1162 H   0  0  0  0  0  0  0  0  0  0  0  0
  197.3594  182.2102  151.5113 H   0  0  0  0  0  0  0  0  0  0  0  0
  196.4589  182.7554  153.7340 H   0  0  0  0  0  0  0  0  0  0  0  0
  197.1524  178.5409  156.1476 H   0  0  0  0  0  0  0  0  0  0  0  0
  198.3359  177.7226  155.1876 H   0  0  0  0  0  0  0  0  0  0  0  0
  199.3073  181.1669  156.1418 H   0  0  0  0  0  0  0  0  0  0  0  0
  200.1175  180.7068  157.6140 H   0  0  0  0  0  0  0  0  0  0  0  0
  198.3209  180.6560  157.5380 H   0  0  0  0  0  0  0  0  0  0  0  0
  200.7721  179.1553  155.1274 H   0  0  0  0  0  0  0  0  0  0  0  0
  200.5845  177.5657  155.9073 H   0  0  0  0  0  0  0  0  0  0  0  0
  201.2914  178.9219  156.7973 H   0  0  0  0  0  0  0  0  0  0  0  0
  198.9563  178.5252  157.3465 H   0  0  0  0  0  0  0  0  0  0  0  0
  1  2  2  0
  2  3  1  0
  2 19  1  0
  3  4  1  0
  3 30  1  0
  4  5  2  0
  4 17  1  0
  5  6  1  0
  5 18  1  0
  6  7  2  0
  6 31  1  0
  7  8  1  0
  7 16  1  0
  8  9  1  0
  9 10  1  0
  9 32  1  6
  9 33  1  0
 10 11  2  0
 10 15  1  0
 11 12  1  0
 11 34  1  0
 12 13  2  0
 12 35  1  0
 13 14  1  0
 13 36  1  0
 14 15  2  0
 14 37  1  0
 15 38  1  0
 16 17  2  0
 17 39  1  0
 18 40  1  1
 18 41  1  0
 18 42  1  0
 19 20  1  0
 19 43  1  0
 20 21  1  0
 20 25  2  0
 21 22  2  0
 21 26  1  0
 22 23  1  0
 22 44  1  0
 23 24  2  0
 23 45  1  0
 24 25  1  0
 24 46  1  0
 25 47  1  0
 26 27  1  0
 26 48  1  1
 26 49  1  0
 27 28  1  0
 27 29  1  0
 27 56  1  1
 28 50  1  6
 28 51  1  0
 28 52  1  0
 29 53  1  6
 29 54  1  0
 29 55  1  0
M  CHG  1  27   1
M  END
>  <s_epik_cmdline>  (28) 
J2VwaWtfcHl0aG9uJywgJy1waCcsICc3LjAwMDAwMCcsICctcGh0JywgJzIuMDAwMDAwJywgJy1tcycsICcxNicsICctdG4nLCAnOCcsICctbWEnLCAnMjAwJywgJy1pbWFlJywgJzxpbmZpbGUubWFlPicsICctb21hZScsICc8b3V0ZmlsZS5tYWU+Jw==

>  <s_epik_input>  (28) 
W2NIXTFbY0hdW2NIXVtjSF1jKFtDSDJdTihbQ0gzXSlbQ0gzXSljMVtOSF1DKD1PKVtOSF1jMmMoW0NIM10pW2NIXWMobltjSF0yKU9bQ0gyXWMzW2NIXVtjSF1bY0hdW2NIXVtjSF0z

>  <s_i_glide_gridfile>  (28) 
ATP-Grid

>  <s_lp_Force_Field>  (28) 
OPLS_2005

>  <s_lp_Variant>  (28) 
rxn203____EMOL44691345____EMOL42077534-1

>  <s_lp_label>  (28) 
2757_sdstereoexpander_1_neutralizer_1_epik_1_stereoizer_1

>  <s_m_source_file>  (28) 
ATP-VSW-LIGPREP-003-in.maegz

>  <s_sd_BIOSOLVEIT.INFINISEE\_QUERY\_NAME>  (28) 
Ref-Lig

>  <s_sd_BIOSOLVEIT.INFINISEE\_QUERY\_SMILES>  (28) 
S(c1nc2c(cc1C[NH2+]Cc3ccc(cc3)C[NH+](C)C)cccc2)Cc4ccccc4

>  <s_sd_BIOSOLVEIT.INFINISEE\_REACTION\_NAME>  (28) 
rxn203

>  <s_sd_BIOSOLVEIT.INFINISEE\_REAGENT1\_NAME>  (28) 
EMOL44691345

>  <s_sd_BIOSOLVEIT.INFINISEE\_REAGENT1\_SMILES>  (28) 
N(Cc1c(N)cccc1)(C)C

>  <s_sd_BIOSOLVEIT.INFINISEE\_REAGENT2\_NAME>  (28) 
EMOL42077534

>  <s_sd_BIOSOLVEIT.INFINISEE\_REAGENT2\_SMILES>  (28) 
O(c1ncc(N)c(c1)C)Cc2ccccc2

>  <s_sd_BIOSOLVEIT.INFINISEE\_SPACE>  (28) 
eXplore_7tr_2022-12

>  <s_vsw_compound_code>  (28) 
88195

>  <s_vsw_variant>  (28) 
88195-1

>  <r_epik_Charging_Adjusted_Penalty>  (28) 
0.080819884641968098

>  <r_epik_Ionization_Penalty>  (28) 
0.040599999999999997

>  <r_epik_Ionization_Penalty_Charging>  (28) 
0.040399999999999998

>  <r_epik_Ionization_Penalty_Neutral>  (28) 
0.00020000000000000001

>  <r_epik_State_Penalty>  (28) 
0.040399999999999998

>  <r_i_docking_score>  (28) 
-6.1984132273742798

>  <r_i_glide_ecoul>  (28) 
-13.7553758621216

>  <r_i_glide_eff_state_penalty>  (28) 
0.040399999999999998

>  <r_i_glide_einternal>  (28) 
7.7063498497009304

>  <r_i_glide_emodel>  (28) 
-76.973752447875796

>  <r_i_glide_energy>  (28) 
-52.315617561340297

>  <r_i_glide_erotb>  (28) 
1.01865829184723

>  <r_i_glide_esite>  (28) 
-0.33831834188579002

>  <r_i_glide_evdw>  (28) 
-38.5602416992188

>  <r_i_glide_gscore>  (28) 
-6.2388132273742798

>  <r_i_glide_hbond>  (28) 
-0.38456488748655898

>  <r_i_glide_ligand_efficiency>  (28) 
-0.21373838715083701

>  <r_i_glide_ligand_efficiency_ln>  (28) 
-1.4192794508709701

>  <r_i_glide_ligand_efficiency_sa>  (28) 
-0.65667204240140298

>  <r_i_glide_lipo>  (28) 
-1.8034021892063501

>  <r_i_glide_metal>  (28) 
-0

>  <r_i_glide_rewards>  (28) 
-0.73986763636363595

>  <r_lp_Energy>  (28) 
28.588678999999999

>  <r_lp_tautomer_probability>  (28) 
1

>  <r_qp_ACxDN^.5/SA>  (28) 
0.0092624000000000005

>  <r_qp_CIQPlogS>  (28) 
-4.468

>  <r_qp_EA(eV)>  (28) 
0.098000000000000004

>  <r_qp_FISA>  (28) 
60.168999999999997

>  <r_qp_FOSA>  (28) 
282.86500000000001

>  <r_qp_IP(eV)>  (28) 
8.5809999999999995

>  <r_qp_Jm>  (28) 
0.0079351193770489797

>  <r_qp_PISA>  (28) 
420.37900000000002

>  <r_qp_PSA>  (28) 
68.480000000000004

>  <r_qp_PercentHumanOralAbsorption>  (28) 
100

>  <r_qp_QPPCaco>  (28) 
456.83699999999999

>  <r_qp_QPPMDCK>  (28) 
351.613

>  <r_qp_QPlogBB>  (28) 
-0.13500000000000001

>  <r_qp_QPlogHERG>  (28) 
-6.5990000000000002

>  <r_qp_QPlogKhsa>  (28) 
0.58899999999999997

>  <r_qp_QPlogKp>  (28) 
-2.5379999999999998

>  <r_qp_QPlogPC16>  (28) 
14.694000000000001

>  <r_qp_QPlogPo/w>  (28) 
4.3479999999999999

>  <r_qp_QPlogPoct>  (28) 
21.858000000000001

>  <r_qp_QPlogPw>  (28) 
12.646000000000001

>  <r_qp_QPlogS>  (28) 
-5.1539999999999999

>  <r_qp_QPpolrz>  (28) 
47.064999999999998

>  <r_qp_SASA>  (28) 
763.41300000000001

>  <r_qp_SAamideO>  (28) 
20.408999999999999

>  <r_qp_SAfluorine>  (28) 
0

>  <r_qp_WPSA>  (28) 
0

>  <r_qp_accptHB>  (28) 
5

>  <r_qp_dip^2/V>  (28) 
0.068097299999999999

>  <r_qp_dipole>  (28) 
9.5589999999999993

>  <r_qp_donorHB>  (28) 
2

>  <r_qp_glob>  (28) 
0.77066389999999996

>  <r_qp_mol_MW>  (28) 
390.48399999999998

>  <r_qp_volume>  (28) 
1341.8050000000001

>  <r_sd_BIOSOLVEIT.INFINISEE\_FTREES\_SIMILARITY>  (28) 
0.90700000000000003

>  <r_sd_BIOSOLVEIT.LOGP>  (28) 
3.25752

>  <r_sd_BIOSOLVEIT.MOLECULAR\_WEIGHT>  (28) 
391.49200000000002

>  <r_sd_BIOSOLVEIT.TPSA>  (28) 
67.689999999999998

>  <i_epik_Tot_Q>  (28) 
1

>  <i_epik_Tot_abs_Q>  (28) 
1

>  <i_f3d_flags>  (28) 
0

>  <i_i_glide_confnum>  (28) 
5

>  <i_i_glide_lignum>  (28) 
1313

>  <i_i_glide_posenum>  (28) 
12

>  <i_i_glide_rotatable_bonds>  (28) 
9

>  <i_lp_mmshare_version>  (28) 
65135

>  <i_m_ct_format>  (28) 
2

>  <i_m_source_file_index>  (28) 
2757

>  <i_qp_#NandO>  (28) 
6

>  <i_qp_#acid>  (28) 
0

>  <i_qp_#amide>  (28) 
1

>  <i_qp_#amidine>  (28) 
0

>  <i_qp_#amine>  (28) 
1

>  <i_qp_#in34>  (28) 
0

>  <i_qp_#in56>  (28) 
18

>  <i_qp_#metab>  (28) 
7

>  <i_qp_#nonHatm>  (28) 
29

>  <i_qp_#noncon>  (28) 
0

>  <i_qp_#ringatoms>  (28) 
18

>  <i_qp_#rotor>  (28) 
7

>  <i_qp_#rtvFG>  (28) 
0

>  <i_qp_#stars>  (28) 
0

>  <i_qp_CNS>  (28) 
1

>  <i_qp_HumanOralAbsorption>  (28) 
3

>  <i_qp_RuleOfFive>  (28) 
0

>  <i_qp_RuleOfThree>  (28) 
1

>  <i_sd_BIOSOLVEIT.INFINISEE\_RESULT\_RANK>  (28) 
58966

>  <i_sd_version>  (28) 
0

>  <b_lp_Chiralities_Consistent>  (28) 
1

>  <b_sd_chiral_flag>  (28) 
0

>  <acquisition_id>  (28) 
ATP-ACQ-0028

>  <canonical_id>  (28) 
ATP-HTVS-E71202E475AE

>  <compound_code>  (28) 
88195

>  <title>  (28) 
rxn203____EMOL44691345____EMOL42077534

>  <variant>  (28) 
88195-1

>  <selection_arm>  (28) 
exploitation

>  <priority>  (28) 
P1

>  <wave>  (28) 
2

>  <source_file>  (28) 
运行/运行/ATP-VSW/ATP-VSW-DOCK_HTVS_1-003_lib/ATP-VSW-DOCK_HTVS_1-003_lib.mae

>  <canonical_smiles>  (28) 
Cc1cc(OCc2ccccc2)ncc1NC(=O)Nc1ccccc1C[NH+](C)C

$$$$
ATP-ACQ-0029
     RDKit          3D

 63 66  0  0  0  0  0  0  0  0999 V2000
  197.8368  182.8788  154.3053 S   0  0  0  0  0  0  0  0  0  0  0  0
  197.5303  183.3198  152.6311 C   0  0  0  0  0  0  0  0  0  0  0  0
  197.0854  182.1807  151.8680 C   0  0  0  0  0  0  0  0  0  0  0  0
  196.9179  182.3671  150.4724 C   0  0  0  0  0  0  0  0  0  0  0  0
  197.1511  183.6169  149.8606 C   0  0  0  0  0  0  0  0  0  0  0  0
  197.5244  184.7399  150.6221 C   0  0  0  0  0  0  0  0  0  0  0  0
  197.7015  184.5901  152.0115 C   0  0  0  0  0  0  0  0  0  0  0  0
  196.9084  181.0173  152.7185 C   0  0  0  0  0  0  0  0  0  0  0  0
  197.2074  181.2840  154.0437 C   0  0  0  0  0  0  0  0  0  0  0  0
  197.0595  180.3688  155.2158 C   0  0  2  0  0  0  0  0  0  0  0  0
  197.0226  181.0565  156.5247 N   0  0  1  0  0  0  0  0  0  0  0  0
  195.9885  182.1021  156.6770 C   0  0  1  0  0  0  0  0  0  0  0  0
  196.4128  183.0819  157.7599 C   0  0  0  0  0  0  0  0  0  0  0  0
  197.2605  184.1734  157.4540 C   0  0  0  0  0  0  0  0  0  0  0  0
  197.6405  185.0925  158.4528 C   0  0  0  0  0  0  0  0  0  0  0  0
  197.1597  184.9158  159.7621 C   0  0  0  0  0  0  0  0  0  0  0  0
  196.3095  183.8367  160.0676 C   0  0  0  0  0  0  0  0  0  0  0  0
  195.9403  182.9147  159.0744 C   0  0  0  0  0  0  0  0  0  0  0  0
  198.5329  186.2811  158.1114 C   0  0  1  0  0  0  0  0  0  0  0  0
  197.7642  187.5123  157.7886 N   0  0  1  0  0  0  0  0  0  0  0  0
  196.7431  187.3174  156.7303 C   0  0  2  0  0  0  0  0  0  0  0  0
  197.2049  188.1794  158.9861 C   0  0  2  0  0  0  0  0  0  0  0  0
  198.1763  179.4141  155.3117 C   0  0  0  0  0  0  0  0  0  0  0  0
  199.1055  178.6205  155.3341 C   0  0  0  0  0  0  0  0  0  0  0  0
  200.2107  177.6749  155.3342 C   0  0  0  0  0  0  0  0  0  0  0  0
  201.1425  177.6693  154.2762 C   0  0  0  0  0  0  0  0  0  0  0  0
  202.2092  176.7467  154.2741 C   0  0  0  0  0  0  0  0  0  0  0  0
  202.3481  175.8106  155.3266 C   0  0  0  0  0  0  0  0  0  0  0  0
  201.4187  175.8345  156.3871 C   0  0  0  0  0  0  0  0  0  0  0  0
  200.3546  176.7586  156.3936 C   0  0  0  0  0  0  0  0  0  0  0  0
  203.4826  174.8230  155.3276 C   0  0  0  0  0  0  0  0  0  0  0  0
  203.4239  173.8392  156.1046 O   0  0  0  0  0  0  0  0  0  0  0  0
  204.4652  175.0348  154.5880 O   0  0  0  0  0  0  0  0  0  0  0  0
  196.4781  179.6579  152.2301 C   0  0  2  0  0  0  0  0  0  0  0  0
  196.8193  180.3294  157.2264 H   0  0  0  0  0  0  0  0  0  0  0  0
  196.6442  181.5215  149.8708 H   0  0  0  0  0  0  0  0  0  0  0  0
  197.0480  183.7113  148.7822 H   0  0  0  0  0  0  0  0  0  0  0  0
  197.7143  185.6887  150.1571 H   0  0  0  0  0  0  0  0  0  0  0  0
  197.9997  185.4292  152.6187 H   0  0  0  0  0  0  0  0  0  0  0  0
  196.1498  179.7744  155.1315 H   0  0  0  0  0  0  0  0  0  0  0  0
  195.8873  182.6650  155.7635 H   0  0  0  0  0  0  0  0  0  0  0  0
  195.0286  181.6172  156.9676 H   0  0  0  0  0  0  0  0  0  0  0  0
  197.6125  184.3495  156.4493 H   0  0  0  0  0  0  0  0  0  0  0  0
  197.4314  185.6142  160.5391 H   0  0  0  0  0  0  0  0  0  0  0  0
  195.9381  183.7057  161.0677 H   0  0  0  0  0  0  0  0  0  0  0  0
  195.2987  182.0809  159.3067 H   0  0  0  0  0  0  0  0  0  0  0  0
  199.2106  186.4738  158.9422 H   0  0  0  0  0  0  0  0  0  0  0  0
  199.1690  186.0230  157.2621 H   0  0  0  0  0  0  0  0  0  0  0  0
  195.9712  186.6147  157.0426 H   0  0  0  0  0  0  0  0  0  0  0  0
  197.1973  186.9498  155.8064 H   0  0  0  0  0  0  0  0  0  0  0  0
  196.2310  188.2444  156.5123 H   0  0  0  0  0  0  0  0  0  0  0  0
  196.4529  187.5570  159.4710 H   0  0  0  0  0  0  0  0  0  0  0  0
  196.7265  189.1243  158.7214 H   0  0  0  0  0  0  0  0  0  0  0  0
  197.9904  188.3972  159.7127 H   0  0  0  0  0  0  0  0  0  0  0  0
  201.0453  178.3658  153.4563 H   0  0  0  0  0  0  0  0  0  0  0  0
  202.9198  176.7508  153.4604 H   0  0  0  0  0  0  0  0  0  0  0  0
  201.5257  175.1365  157.2066 H   0  0  0  0  0  0  0  0  0  0  0  0
  199.6476  176.7539  157.2110 H   0  0  0  0  0  0  0  0  0  0  0  0
  195.5453  179.3356  152.6900 H   0  0  0  0  0  0  0  0  0  0  0  0
  197.2349  178.9090  152.4642 H   0  0  0  0  0  0  0  0  0  0  0  0
  196.3310  179.6392  151.1520 H   0  0  0  0  0  0  0  0  0  0  0  0
  198.4379  188.1639  157.4100 H   0  0  0  0  0  0  0  0  0  0  0  0
  197.9312  181.4361  156.7115 H   0  0  0  0  0  0  0  0  0  0  0  0
  1  2  1  0
  1  9  1  0
  2  3  1  0
  2  7  2  0
  3  4  2  0
  3  8  1  0
  4  5  1  0
  4 36  1  0
  5  6  2  0
  5 37  1  0
  6  7  1  0
  6 38  1  0
  7 39  1  0
  8  9  2  0
  8 34  1  0
  9 10  1  0
 10 11  1  0
 10 23  1  0
 10 40  1  6
 11 12  1  0
 11 35  1  1
 11 63  1  0
 12 13  1  0
 12 41  1  6
 12 42  1  0
 13 14  2  0
 13 18  1  0
 14 15  1  0
 14 43  1  0
 15 16  2  0
 15 19  1  0
 16 17  1  0
 16 44  1  0
 17 18  2  0
 17 45  1  0
 18 46  1  0
 19 20  1  0
 19 47  1  1
 19 48  1  0
 20 21  1  0
 20 22  1  0
 20 62  1  6
 21 49  1  1
 21 50  1  0
 21 51  1  0
 22 52  1  1
 22 53  1  0
 22 54  1  0
 23 24  3  0
 24 25  1  0
 25 26  1  0
 25 30  2  0
 26 27  2  0
 26 55  1  0
 27 28  1  0
 27 56  1  0
 28 29  2  0
 28 31  1  0
 29 30  1  0
 29 57  1  0
 30 58  1  0
 31 32  1  0
 31 33  2  0
 34 59  1  1
 34 60  1  0
 34 61  1  0
M  CHG  3  11   1  20   1  32  -1
M  END
>  <s_epik_cmdline>  (29) 
J2VwaWtfcHl0aG9uJywgJy1waCcsICc3LjAwMDAwMCcsICctcGh0JywgJzIuMDAwMDAwJywgJy1tcycsICcxNicsICctdG4nLCAnOCcsICctbWEnLCAnMjAwJywgJy1pbWFlJywgJzxpbmZpbGUubWFlPicsICctb21hZScsICc8b3V0ZmlsZS5tYWU+Jw==

>  <s_epik_input>  (29) 
W2NIXTFbY0hdYyhDKD1PKVtPSF0pW2NIXVtjSF1jMUMjQ1tDQEhdKGMoczIpYyhbQ0gzXSljKGMyMylbY0hdW2NIXVtjSF1bY0hdMylbTkhdW0NIMl1jNFtjSF1jKFtjSF1bY0hdW2NIXTQpW0NIMl1OKFtDSDNdKVtDSDNd

>  <s_i_glide_gridfile>  (29) 
ATP-Grid

>  <s_lp_Force_Field>  (29) 
OPLS_2005

>  <s_lp_Variant>  (29) 
rxn403____EMOL2873214____EMOL721951____EMOL31600616-3

>  <s_lp_label>  (29) 
2923_sdstereoexpander_1_neutralizer_1_epik_2_stereoizer_1

>  <s_m_source_file>  (29) 
ATP-VSW-LIGPREP-001-in.maegz

>  <s_sd_BIOSOLVEIT.INFINISEE\_QUERY\_NAME>  (29) 
Ref-Lig

>  <s_sd_BIOSOLVEIT.INFINISEE\_QUERY\_SMILES>  (29) 
S(c1nc2c(cc1C[NH2+]Cc3ccc(cc3)C[NH+](C)C)cccc2)Cc4ccccc4

>  <s_sd_BIOSOLVEIT.INFINISEE\_REACTION\_NAME>  (29) 
rxn403

>  <s_sd_BIOSOLVEIT.INFINISEE\_REAGENT1\_NAME>  (29) 
EMOL2873214

>  <s_sd_BIOSOLVEIT.INFINISEE\_REAGENT1\_SMILES>  (29) 
N(Cc1cc(ccc1)CN)(C)C

>  <s_sd_BIOSOLVEIT.INFINISEE\_REAGENT2\_NAME>  (29) 
EMOL721951

>  <s_sd_BIOSOLVEIT.INFINISEE\_REAGENT2\_SMILES>  (29) 
S1c2c(cccc2)C(=C1C=O)C

>  <s_sd_BIOSOLVEIT.INFINISEE\_REAGENT3\_NAME>  (29) 
EMOL31600616

>  <s_sd_BIOSOLVEIT.INFINISEE\_REAGENT3\_SMILES>  (29) 
O=C(O)c1ccc(C#C)cc1

>  <s_sd_BIOSOLVEIT.INFINISEE\_SPACE>  (29) 
eXplore_7tr_2022-12

>  <s_vsw_compound_code>  (29) 
93505

>  <s_vsw_variant>  (29) 
93505-3

>  <r_epik_Charging_Adjusted_Penalty>  (29) 
1.4501652960356399

>  <r_epik_Ionization_Penalty>  (29) 
0.73040000000000005

>  <r_epik_Ionization_Penalty_Charging>  (29) 
0.73040000000000005

>  <r_epik_Ionization_Penalty_Neutral>  (29) 
0

>  <r_epik_State_Penalty>  (29) 
0.7198

>  <r_i_docking_score>  (29) 
-4.6379580075134399

>  <r_i_glide_ecoul>  (29) 
-9.6084747314453107

>  <r_i_glide_eff_state_penalty>  (29) 
0.7198

>  <r_i_glide_einternal>  (29) 
4.8230628967285201

>  <r_i_glide_emodel>  (29) 
-69.125063491691606

>  <r_i_glide_energy>  (29) 
-48.238880157470703

>  <r_i_glide_erotb>  (29) 
0.64111273366732902

>  <r_i_glide_esite>  (29) 
-0.098854112320915899

>  <r_i_glide_evdw>  (29) 
-38.630405426025398

>  <r_i_glide_gscore>  (29) 
-5.3577580075134401

>  <r_i_glide_hbond>  (29) 
-0.298989307332995

>  <r_i_glide_ligand_efficiency>  (29) 
-0.136410529632748

>  <r_i_glide_ligand_efficiency_ln>  (29) 
-1.0246550141753801

>  <r_i_glide_ligand_efficiency_sa>  (29) 
-0.44191716109731

>  <r_i_glide_lipo>  (29) 
-1.7178920463541001

>  <r_i_glide_metal>  (29) 
-0

>  <r_i_glide_rewards>  (29) 
-0.51034379415469699

>  <r_lp_Energy>  (29) 
22.611118000000001

>  <r_qp_ACxDN^.5/SA>  (29) 
0.0088775999999999994

>  <r_qp_CIQPlogS>  (29) 
-5.6310000000000002

>  <r_qp_EA(eV)>  (29) 
0.83199999999999996

>  <r_qp_FISA>  (29) 
119.36199999999999

>  <r_qp_FOSA>  (29) 
273.452

>  <r_qp_IP(eV)>  (29) 
8.8360000000000003

>  <r_qp_Jm>  (29) 
2.6989617286233802e-07

>  <r_qp_PISA>  (29) 
460.92399999999998

>  <r_qp_PSA>  (29) 
67.159999999999997

>  <r_qp_PercentHumanOralAbsorption>  (29) 
69.183000000000007

>  <r_qp_QPPCaco>  (29) 
11.518000000000001

>  <r_qp_QPPMDCK>  (29) 
8.202

>  <r_qp_QPlogBB>  (29) 
-0.57199999999999995

>  <r_qp_QPlogHERG>  (29) 
-7.5469999999999997

>  <r_qp_QPlogKhsa>  (29) 
1.145

>  <r_qp_QPlogKp>  (29) 
-5.3570000000000002

>  <r_qp_QPlogPC16>  (29) 
17.847000000000001

>  <r_qp_QPlogPo/w>  (29) 
3.9689999999999999

>  <r_qp_QPlogPoct>  (29) 
24.452000000000002

>  <r_qp_QPlogPw>  (29) 
12.144

>  <r_qp_QPlogS>  (29) 
-6.883

>  <r_qp_QPpolrz>  (29) 
54.865000000000002

>  <r_qp_SASA>  (29) 
876.15499999999997

>  <r_qp_SAamideO>  (29) 
0

>  <r_qp_SAfluorine>  (29) 
0

>  <r_qp_WPSA>  (29) 
22.417000000000002

>  <r_qp_accptHB>  (29) 
5.5

>  <r_qp_dip^2/V>  (29) 
0.0155944

>  <r_qp_dipole>  (29) 
4.931

>  <r_qp_donorHB>  (29) 
2

>  <r_qp_glob>  (29) 
0.74217469999999996

>  <r_qp_mol_MW>  (29) 
468.61200000000002

>  <r_qp_volume>  (29) 
1559.1310000000001

>  <r_sd_BIOSOLVEIT.INFINISEE\_FTREES\_SIMILARITY>  (29) 
0.90400000000000003

>  <r_sd_BIOSOLVEIT.LOGP>  (29) 
2.0741200000000002

>  <r_sd_BIOSOLVEIT.MOLECULAR\_WEIGHT>  (29) 
469.625

>  <r_sd_BIOSOLVEIT.TPSA>  (29) 
61.18

>  <i_epik_Tot_Q>  (29) 
1

>  <i_epik_Tot_abs_Q>  (29) 
3

>  <i_f3d_flags>  (29) 
0

>  <i_i_glide_confnum>  (29) 
3

>  <i_i_glide_lignum>  (29) 
1366

>  <i_i_glide_posenum>  (29) 
7

>  <i_i_glide_rotatable_bonds>  (29) 
9

>  <i_lp_mmshare_version>  (29) 
65135

>  <i_m_ct_format>  (29) 
2

>  <i_m_source_file_index>  (29) 
2923

>  <i_qp_#NandO>  (29) 
4

>  <i_qp_#acid>  (29) 
1

>  <i_qp_#amide>  (29) 
0

>  <i_qp_#amidine>  (29) 
0

>  <i_qp_#amine>  (29) 
2

>  <i_qp_#in34>  (29) 
0

>  <i_qp_#in56>  (29) 
21

>  <i_qp_#metab>  (29) 
7

>  <i_qp_#nonHatm>  (29) 
34

>  <i_qp_#noncon>  (29) 
0

>  <i_qp_#ringatoms>  (29) 
21

>  <i_qp_#rotor>  (29) 
9

>  <i_qp_#rtvFG>  (29) 
0

>  <i_qp_#stars>  (29) 
3

>  <i_qp_CNS>  (29) 
0

>  <i_qp_HumanOralAbsorption>  (29) 
1

>  <i_qp_RuleOfFive>  (29) 
0

>  <i_qp_RuleOfThree>  (29) 
3

>  <i_sd_BIOSOLVEIT.INFINISEE\_RESULT\_RANK>  (29) 
77355

>  <i_sd_version>  (29) 
0

>  <b_lp_Chiralities_Consistent>  (29) 
1

>  <b_sd_chiral_flag>  (29) 
0

>  <acquisition_id>  (29) 
ATP-ACQ-0029

>  <canonical_id>  (29) 
ATP-HTVS-7ABEAEA32F74

>  <compound_code>  (29) 
93505

>  <title>  (29) 
rxn403____EMOL2873214____EMOL721951____EMOL31600616

>  <variant>  (29) 
93505-3

>  <selection_arm>  (29) 
descriptor_diversity

>  <priority>  (29) 
P1

>  <wave>  (29) 
2

>  <source_file>  (29) 
运行/运行/ATP-VSW/ATP-VSW-DOCK_HTVS_1-001_lib/ATP-VSW-DOCK_HTVS_1-001_lib

>  <canonical_smiles>  (29) 
Cc1c([C@@H](C#Cc2ccc(C(=O)[O-])cc2)[NH2+]Cc2cccc(C[NH+](C)C)c2)sc2ccccc12

$$$$
ATP-ACQ-0030
     RDKit          3D

 56 59  0  0  0  0  0  0  0  0999 V2000
  198.0774  186.2098  155.6881 O   0  0  0  0  0  0  0  0  0  0  0  0
  197.5756  185.1071  155.8722 C   0  0  0  0  0  0  0  0  0  0  0  0
  197.3746  184.1822  154.9075 N   0  0  0  0  0  0  0  0  0  0  0  0
  197.6312  184.2358  153.5108 C   0  0  0  0  0  0  0  0  0  0  0  0
  197.6868  183.0268  152.7638 C   0  0  0  0  0  0  0  0  0  0  0  0
  197.4650  181.7540  153.4381 C   0  0  0  0  0  0  0  0  0  0  0  0
  197.3513  180.7150  154.1002 C   0  0  0  0  0  0  0  0  0  0  0  0
  197.3015  179.4957  154.9254 C   0  0  1  0  0  0  0  0  0  0  0  0
  197.9936  179.8319  156.2217 N   0  0  1  0  0  0  0  0  0  0  0  0
  199.4527  179.7814  156.3347 C   0  0  1  0  0  0  0  0  0  0  0  0
  200.0557  178.4366  155.9561 C   0  0  0  0  0  0  0  0  0  0  0  0
  200.0746  178.0054  154.6102 C   0  0  0  0  0  0  0  0  0  0  0  0
  200.5726  176.7682  154.2564 C   0  0  0  0  0  0  0  0  0  0  0  0
  201.1396  175.9090  155.2434 C   0  0  0  0  0  0  0  0  0  0  0  0
  201.1670  176.3318  156.5845 C   0  0  0  0  0  0  0  0  0  0  0  0
  200.6093  177.5755  156.9467 C   0  0  0  0  0  0  0  0  0  0  0  0
  200.1335  180.9534  155.5962 C   0  0  2  0  0  0  0  0  0  0  0  0
  197.9578  183.1097  151.3664 C   0  0  0  0  0  0  0  0  0  0  0  0
  198.0850  184.4009  150.7737 C   0  0  0  0  0  0  0  0  0  0  0  0
  197.9711  185.5369  151.4856 N   0  0  0  0  0  0  0  0  0  0  0  0
  197.7611  185.4553  152.8151 C   0  0  0  0  0  0  0  0  0  0  0  0
  198.3259  184.4929  149.3860 C   0  0  0  0  0  0  0  0  0  0  0  0
  198.4560  183.3410  148.5928 C   0  0  0  0  0  0  0  0  0  0  0  0
  198.3452  182.0705  149.1796 C   0  0  0  0  0  0  0  0  0  0  0  0
  198.0950  181.9534  150.5581 C   0  0  0  0  0  0  0  0  0  0  0  0
  197.1716  184.6548  157.2493 C   0  0  0  0  0  0  0  0  0  0  0  0
  196.4856  183.4283  157.4563 C   0  0  0  0  0  0  0  0  0  0  0  0
  196.1062  183.0287  158.7434 C   0  0  0  0  0  0  0  0  0  0  0  0
  195.4469  181.8583  158.9346 O   0  0  0  0  0  0  0  0  0  0  0  0
  196.3949  183.8447  159.8555 C   0  0  0  0  0  0  0  0  0  0  0  0
  197.0659  185.0639  159.6700 C   0  0  0  0  0  0  0  0  0  0  0  0
  197.4540  185.4682  158.3764 C   0  0  0  0  0  0  0  0  0  0  0  0
  197.6341  180.7074  156.5859 H   0  0  0  0  0  0  0  0  0  0  0  0
  196.9911  183.3082  155.2348 H   0  0  0  0  0  0  0  0  0  0  0  0
  196.2225  179.3046  155.1370 H   0  0  0  0  0  0  0  0  0  0  0  0
  197.7573  178.6656  154.4043 H   0  0  0  0  0  0  0  0  0  0  0  0
  199.6569  179.9281  157.3976 H   0  0  0  0  0  0  0  0  0  0  0  0
  199.6367  178.6678  153.8463 H   0  0  0  0  0  0  0  0  0  0  0  0
  200.5339  176.4302  153.2247 H   0  0  0  0  0  0  0  0  0  0  0  0
  201.5414  174.9466  154.9588 H   0  0  0  0  0  0  0  0  0  0  0  0
  201.6058  175.6962  157.3383 H   0  0  0  0  0  0  0  0  0  0  0  0
  200.6071  177.8743  157.9929 H   0  0  0  0  0  0  0  0  0  0  0  0
  201.2196  180.9601  155.7691 H   0  0  0  0  0  0  0  0  0  0  0  0
  199.7254  181.9071  155.9365 H   0  0  0  0  0  0  0  0  0  0  0  0
  199.9770  180.8760  154.5209 H   0  0  0  0  0  0  0  0  0  0  0  0
  197.6389  186.4052  153.3095 H   0  0  0  0  0  0  0  0  0  0  0  0
  198.4138  185.4691  148.9367 H   0  0  0  0  0  0  0  0  0  0  0  0
  198.6445  183.4337  147.5339 H   0  0  0  0  0  0  0  0  0  0  0  0
  198.4469  181.1830  148.5724 H   0  0  0  0  0  0  0  0  0  0  0  0
  198.0159  180.9610  150.9759 H   0  0  0  0  0  0  0  0  0  0  0  0
  196.2096  182.7762  156.6386 H   0  0  0  0  0  0  0  0  0  0  0  0
  195.4901  181.2293  158.2190 H   0  0  0  0  0  0  0  0  0  0  0  0
  196.1024  183.5230  160.8433 H   0  0  0  0  0  0  0  0  0  0  0  0
  197.2901  185.6848  160.5251 H   0  0  0  0  0  0  0  0  0  0  0  0
  197.9650  186.4113  158.2540 H   0  0  0  0  0  0  0  0  0  0  0  0
  197.6335  179.1293  156.8857 H   0  0  0  0  0  0  0  0  0  0  0  0
  1  2  2  0
  2  3  1  0
  2 26  1  0
  3  4  1  0
  3 34  1  0
  4  5  2  0
  4 21  1  0
  5  6  1  0
  5 18  1  0
  6  7  3  0
  7  8  1  0
  8  9  1  0
  8 35  1  1
  8 36  1  0
  9 10  1  0
  9 33  1  1
  9 56  1  0
 10 11  1  0
 10 17  1  0
 10 37  1  1
 11 12  2  0
 11 16  1  0
 12 13  1  0
 12 38  1  0
 13 14  2  0
 13 39  1  0
 14 15  1  0
 14 40  1  0
 15 16  2  0
 15 41  1  0
 16 42  1  0
 17 43  1  6
 17 44  1  0
 17 45  1  0
 18 19  1  0
 18 25  2  0
 19 20  1  0
 19 22  2  0
 20 21  2  0
 21 46  1  0
 22 23  1  0
 22 47  1  0
 23 24  2  0
 23 48  1  0
 24 25  1  0
 24 49  1  0
 25 50  1  0
 26 27  1  0
 26 32  2  0
 27 28  2  0
 27 51  1  0
 28 29  1  0
 28 30  1  0
 29 52  1  0
 30 31  2  0
 30 53  1  0
 31 32  1  0
 31 54  1  0
 32 55  1  0
M  CHG  1   9   1
M  END
>  <s_epik_cmdline>  (30) 
J2VwaWtfcHl0aG9uJywgJy1waCcsICc3LjAwMDAwMCcsICctcGh0JywgJzIuMDAwMDAwJywgJy1tcycsICcxNicsICctdG4nLCAnOCcsICctbWEnLCAnMjAwJywgJy1pbWFlJywgJzxpbmZpbGUubWFlPicsICctb21hZScsICc8b3V0ZmlsZS5tYWU+Jw==

>  <s_epik_input>  (30) 
W2NIXTFbY0hdW2NIXWMoW09IXSlbY0hdYzFDKD1PKVtOSF1jKFtjSF1uYyhjMjMpW2NIXVtjSF1bY0hdW2NIXTMpYzJDI0NbQ0gyXVtOSF1bQ0BIXShbQ0gzXSljNFtjSF1bY0hdW2NIXVtjSF1bY0hdNA==

>  <s_i_glide_gridfile>  (30) 
ATP-Grid

>  <s_lp_Force_Field>  (30) 
OPLS_2005

>  <s_lp_Variant>  (30) 
rxn503b____EMOL519605____EMOL30488121____EMOL1468452-3

>  <s_lp_label>  (30) 
2851_sdstereoexpander_1_neutralizer_1_epik_2_stereoizer_1

>  <s_m_source_file>  (30) 
ATP-VSW-LIGPREP-002-in.maegz

>  <s_sd_BIOSOLVEIT.INFINISEE\_QUERY\_NAME>  (30) 
Ref-Lig

>  <s_sd_BIOSOLVEIT.INFINISEE\_QUERY\_SMILES>  (30) 
S(c1nc2c(cc1C[NH2+]Cc3ccc(cc3)C[NH+](C)C)cccc2)Cc4ccccc4

>  <s_sd_BIOSOLVEIT.INFINISEE\_REACTION\_NAME>  (30) 
rxn503b

>  <s_sd_BIOSOLVEIT.INFINISEE\_REAGENT1\_NAME>  (30) 
EMOL519605

>  <s_sd_BIOSOLVEIT.INFINISEE\_REAGENT1\_SMILES>  (30) 
O=C(O)c1cc(O)ccc1

>  <s_sd_BIOSOLVEIT.INFINISEE\_REAGENT2\_NAME>  (30) 
EMOL30488121

>  <s_sd_BIOSOLVEIT.INFINISEE\_REAGENT2\_SMILES>  (30) 
Brc1c(N)cnc2c1cccc2

>  <s_sd_BIOSOLVEIT.INFINISEE\_REAGENT3\_NAME>  (30) 
EMOL1468452

>  <s_sd_BIOSOLVEIT.INFINISEE\_REAGENT3\_SMILES>  (30) 
N(C(c1ccccc1)C)CC#C

>  <s_sd_BIOSOLVEIT.INFINISEE\_SPACE>  (30) 
eXplore_7tr_2022-12

>  <s_vsw_compound_code>  (30) 
91202

>  <s_vsw_variant>  (30) 
91202-3

>  <r_epik_Charging_Adjusted_Penalty>  (30) 
1.1422793874747099

>  <r_epik_Ionization_Penalty>  (30) 
0.57369999999999999

>  <r_epik_Ionization_Penalty_Charging>  (30) 
0.56859999999999999

>  <r_epik_Ionization_Penalty_Neutral>  (30) 
0.0051000000000000004

>  <r_epik_State_Penalty>  (30) 
0.5736

>  <r_i_docking_score>  (30) 
-4.3362481880888302

>  <r_i_glide_ecoul>  (30) 
-10.175015449523899

>  <r_i_glide_eff_state_penalty>  (30) 
0.5736

>  <r_i_glide_einternal>  (30) 
7.2113780975341797

>  <r_i_glide_emodel>  (30) 
-63.272428116235197

>  <r_i_glide_energy>  (30) 
-46.395592689514203

>  <r_i_glide_erotb>  (30) 
0.77688040092706601

>  <r_i_glide_esite>  (30) 
-0.10000000000000001

>  <r_i_glide_evdw>  (30) 
-36.220577239990199

>  <r_i_glide_gscore>  (30) 
-4.9098481880888301

>  <r_i_glide_hbond>  (30) 
-0.376137457417

>  <r_i_glide_ligand_efficiency>  (30) 
-0.135507755877776

>  <r_i_glide_ligand_efficiency_ln>  (30) 
-0.97100417097443803

>  <r_i_glide_ligand_efficiency_sa>  (30) 
-0.43021030796346499

>  <r_i_glide_lipo>  (30) 
-1.2885055112321

>  <r_i_glide_metal>  (30) 
-0

>  <r_i_glide_rewards>  (30) 
-0.58480444093869399

>  <r_lp_Energy>  (30) 
26.060751

>  <r_lp_tautomer_probability>  (30) 
0.999999999997365

>  <r_qp_ACxDN^.5/SA>  (30) 
0.0148713

>  <r_qp_CIQPlogS>  (30) 
-5.5890000000000004

>  <r_qp_EA(eV)>  (30) 
1.1060000000000001

>  <r_qp_FISA>  (30) 
115.773

>  <r_qp_FOSA>  (30) 
122.274

>  <r_qp_IP(eV)>  (30) 
8.5280000000000005

>  <r_qp_Jm>  (30) 
0.034717563911423999

>  <r_qp_PISA>  (30) 
431.65100000000001

>  <r_qp_PSA>  (30) 
77.879000000000005

>  <r_qp_PercentHumanOralAbsorption>  (30) 
90.603999999999999

>  <r_qp_QPPCaco>  (30) 
197.208

>  <r_qp_QPPMDCK>  (30) 
94.652000000000001

>  <r_qp_QPlogBB>  (30) 
-0.57299999999999995

>  <r_qp_QPlogHERG>  (30) 
-6.641

>  <r_qp_QPlogKhsa>  (30) 
0.57999999999999996

>  <r_qp_QPlogKp>  (30) 
-3.427

>  <r_qp_QPlogPC16>  (30) 
14.731999999999999

>  <r_qp_QPlogPo/w>  (30) 
3.8570000000000002

>  <r_qp_QPlogPoct>  (30) 
23.190000000000001

>  <r_qp_QPlogPw>  (30) 
13.347

>  <r_qp_QPlogS>  (30) 
-3.657

>  <r_qp_QPpolrz>  (30) 
44.512999999999998

>  <r_qp_SASA>  (30) 
669.69799999999998

>  <r_qp_SAamideO>  (30) 
0

>  <r_qp_SAfluorine>  (30) 
0

>  <r_qp_WPSA>  (30) 
0

>  <r_qp_accptHB>  (30) 
5.75

>  <r_qp_dip^2/V>  (30) 
0.049811399999999999

>  <r_qp_dipole>  (30) 
8.0199999999999996

>  <r_qp_donorHB>  (30) 
3

>  <r_qp_glob>  (30) 
0.85636259999999997

>  <r_qp_mol_MW>  (30) 
421.49799999999999

>  <r_qp_volume>  (30) 
1291.3889999999999

>  <r_sd_BIOSOLVEIT.INFINISEE\_FTREES\_SIMILARITY>  (30) 
0.90500000000000003

>  <r_sd_BIOSOLVEIT.LOGP>  (30) 
3.8687999999999998

>  <r_sd_BIOSOLVEIT.MOLECULAR\_WEIGHT>  (30) 
422.50599999999997

>  <r_sd_BIOSOLVEIT.TPSA>  (30) 
78.829999999999998

>  <i_epik_Tot_Q>  (30) 
1

>  <i_epik_Tot_abs_Q>  (30) 
1

>  <i_f3d_flags>  (30) 
0

>  <i_i_glide_confnum>  (30) 
3

>  <i_i_glide_lignum>  (30) 
1414

>  <i_i_glide_posenum>  (30) 
20

>  <i_i_glide_rotatable_bonds>  (30) 
9

>  <i_lp_mmshare_version>  (30) 
65135

>  <i_m_ct_format>  (30) 
2

>  <i_m_source_file_index>  (30) 
2851

>  <i_qp_#NandO>  (30) 
5

>  <i_qp_#acid>  (30) 
0

>  <i_qp_#amide>  (30) 
0

>  <i_qp_#amidine>  (30) 
0

>  <i_qp_#amine>  (30) 
1

>  <i_qp_#in34>  (30) 
0

>  <i_qp_#in56>  (30) 
22

>  <i_qp_#metab>  (30) 
6

>  <i_qp_#nonHatm>  (30) 
32

>  <i_qp_#noncon>  (30) 
0

>  <i_qp_#ringatoms>  (30) 
22

>  <i_qp_#rotor>  (30) 
8

>  <i_qp_#rtvFG>  (30) 
0

>  <i_qp_#stars>  (30) 
0

>  <i_qp_CNS>  (30) 
0

>  <i_qp_HumanOralAbsorption>  (30) 
3

>  <i_qp_RuleOfFive>  (30) 
0

>  <i_qp_RuleOfThree>  (30) 
0

>  <i_sd_BIOSOLVEIT.INFINISEE\_RESULT\_RANK>  (30) 
68899

>  <i_sd_version>  (30) 
0

>  <b_lp_Chiralities_Consistent>  (30) 
1

>  <b_sd_chiral_flag>  (30) 
0

>  <acquisition_id>  (30) 
ATP-ACQ-0030

>  <canonical_id>  (30) 
ATP-HTVS-F7366BF3987A

>  <compound_code>  (30) 
91202

>  <title>  (30) 
rxn503b____EMOL519605____EMOL30488121____EMOL1468452

>  <variant>  (30) 
91202-3

>  <selection_arm>  (30) 
score_calibration

>  <priority>  (30) 
P1

>  <wave>  (30) 
2

>  <source_file>  (30) 
运行/运行/ATP-VSW/ATP-VSW-DOCK_HTVS_1-002_lib.maegz

>  <canonical_smiles>  (30) 
C[C@@H]([NH2+]CC#Cc1c(NC(=O)c2cccc(O)c2)cnc2ccccc12)c1ccccc1

$$$$
ATP-ACQ-0031
     RDKit          3D

 54 56  0  0  0  0  0  0  0  0999 V2000
  193.1572  183.3289  158.9177 F   0  0  0  0  0  0  0  0  0  0  0  0
  194.5072  183.3685  158.8367 C   0  0  0  0  0  0  0  0  0  0  0  0
  195.2142  184.4273  159.4348 C   0  0  0  0  0  0  0  0  0  0  0  0
  196.5565  184.5504  159.3054 N   0  0  0  0  0  0  0  0  0  0  0  0
  197.2302  183.6246  158.5891 C   0  0  0  0  0  0  0  0  0  0  0  0
  196.6155  182.5111  157.9805 C   0  0  0  0  0  0  0  0  0  0  0  0
  197.3334  181.5495  157.2564 N   0  0  0  0  0  0  0  0  0  0  0  0
  198.4027  181.9755  156.3600 C   0  0  1  0  0  0  0  0  0  0  0  0
  198.9457  180.8641  155.4754 C   0  0  0  0  0  0  0  0  0  0  0  0
  199.1418  179.5734  156.0071 C   0  0  0  0  0  0  0  0  0  0  0  0
  199.6976  178.5420  155.2205 C   0  0  0  0  0  0  0  0  0  0  0  0
  200.0187  178.7978  153.8707 C   0  0  0  0  0  0  0  0  0  0  0  0
  199.7933  180.0755  153.3236 C   0  0  0  0  0  0  0  0  0  0  0  0
  199.2683  181.1099  154.1248 C   0  0  0  0  0  0  0  0  0  0  0  0
  199.9379  177.1622  155.8173 C   0  0  1  0  0  0  0  0  0  0  0  0
  201.1848  177.1075  156.6205 N   0  0  1  0  0  0  0  0  0  0  0  0
  201.0126  177.6317  157.9978 C   0  0  2  0  0  0  0  0  0  0  0  0
  201.7988  175.7601  156.6202 C   0  0  2  0  0  0  0  0  0  0  0  0
  195.2183  182.3766  158.1278 C   0  0  0  0  0  0  0  0  0  0  0  0
  194.3906  185.3445  160.1331 N   0  0  0  0  0  0  0  0  0  0  0  0
  194.7561  186.3543  160.9311 C   0  0  0  0  0  0  0  0  0  0  0  0
  195.9088  186.6624  161.2229 O   0  0  0  0  0  0  0  0  0  0  0  0
  193.6405  187.1026  161.4595 C   0  0  0  0  0  0  0  0  0  0  0  0
  192.7459  187.7978  161.9160 C   0  0  0  0  0  0  0  0  0  0  0  0
  191.7025  188.6437  162.4675 C   0  0  0  0  0  0  0  0  0  0  0  0
  190.6166  189.0458  161.6618 C   0  0  0  0  0  0  0  0  0  0  0  0
  189.5943  189.8454  162.2076 C   0  0  0  0  0  0  0  0  0  0  0  0
  189.6615  190.2484  163.5554 C   0  0  0  0  0  0  0  0  0  0  0  0
  190.7499  189.8557  164.3576 C   0  0  0  0  0  0  0  0  0  0  0  0
  191.7708  189.0526  163.8141 C   0  0  0  0  0  0  0  0  0  0  0  0
  198.2987  183.7727  158.5257 H   0  0  0  0  0  0  0  0  0  0  0  0
  196.8423  180.6841  157.0419 H   0  0  0  0  0  0  0  0  0  0  0  0
  198.0369  182.7820  155.7278 H   0  0  0  0  0  0  0  0  0  0  0  0
  199.2359  182.3810  156.9348 H   0  0  0  0  0  0  0  0  0  0  0  0
  198.8546  179.3877  157.0332 H   0  0  0  0  0  0  0  0  0  0  0  0
  200.4195  178.0173  153.2390 H   0  0  0  0  0  0  0  0  0  0  0  0
  200.0252  180.2598  152.2852 H   0  0  0  0  0  0  0  0  0  0  0  0
  199.1102  182.0885  153.6920 H   0  0  0  0  0  0  0  0  0  0  0  0
  199.0820  176.8523  156.4152 H   0  0  0  0  0  0  0  0  0  0  0  0
  199.9967  176.4527  154.9891 H   0  0  0  0  0  0  0  0  0  0  0  0
  200.2624  177.0621  158.5491 H   0  0  0  0  0  0  0  0  0  0  0  0
  200.7279  178.6808  158.0073 H   0  0  0  0  0  0  0  0  0  0  0  0
  201.9509  177.5817  158.5361 H   0  0  0  0  0  0  0  0  0  0  0  0
  201.1491  175.0397  157.1084 H   0  0  0  0  0  0  0  0  0  0  0  0
  202.7449  175.7639  157.1603 H   0  0  0  0  0  0  0  0  0  0  0  0
  202.0135  175.4091  155.6081 H   0  0  0  0  0  0  0  0  0  0  0  0
  194.6964  181.5554  157.6533 H   0  0  0  0  0  0  0  0  0  0  0  0
  193.3988  185.2255  159.9631 H   0  0  0  0  0  0  0  0  0  0  0  0
  190.5561  188.7409  160.6264 H   0  0  0  0  0  0  0  0  0  0  0  0
  188.7498  190.1437  161.6030 H   0  0  0  0  0  0  0  0  0  0  0  0
  188.8682  190.8530  163.9702 H   0  0  0  0  0  0  0  0  0  0  0  0
  190.8012  190.1614  165.3919 H   0  0  0  0  0  0  0  0  0  0  0  0
  192.6006  188.7502  164.4364 H   0  0  0  0  0  0  0  0  0  0  0  0
  201.8531  177.7118  156.1631 H   0  0  0  0  0  0  0  0  0  0  0  0
  1  2  1  0
  2  3  2  0
  2 19  1  0
  3  4  1  0
  3 20  1  0
  4  5  2  0
  5  6  1  0
  5 31  1  0
  6  7  1  0
  6 19  2  0
  7  8  1  0
  7 32  1  0
  8  9  1  0
  8 33  1  6
  8 34  1  0
  9 10  2  0
  9 14  1  0
 10 11  1  0
 10 35  1  0
 11 12  2  0
 11 15  1  0
 12 13  1  0
 12 36  1  0
 13 14  2  0
 13 37  1  0
 14 38  1  0
 15 16  1  0
 15 39  1  1
 15 40  1  0
 16 17  1  0
 16 18  1  0
 16 54  1  6
 17 41  1  1
 17 42  1  0
 17 43  1  0
 18 44  1  1
 18 45  1  0
 18 46  1  0
 19 47  1  0
 20 21  1  0
 20 48  1  0
 21 22  2  0
 21 23  1  0
 23 24  3  0
 24 25  1  0
 25 26  2  0
 25 30  1  0
 26 27  1  0
 26 49  1  0
 27 28  2  0
 27 50  1  0
 28 29  1  0
 28 51  1  0
 29 30  2  0
 29 52  1  0
 30 53  1  0
M  CHG  1  16   1
M  END
>  <s_epik_cmdline>  (31) 
J2VwaWtfcHl0aG9uJywgJy1waCcsICc3LjAwMDAwMCcsICctcGh0JywgJzIuMDAwMDAwJywgJy1tcycsICcxNicsICctdG4nLCAnOCcsICctbWEnLCAnMjAwJywgJy1pbWFlJywgJzxpbmZpbGUubWFlPicsICctb21hZScsICc8b3V0ZmlsZS5tYWU+Jw==

>  <s_epik_input>  (31) 
W2NIXTFbY0hdW2NIXVtjSF1bY0hdYzFDI0NDKD1PKVtOSF1jKGMyRiluW2NIXWMoW2NIXTIpW05IXVtDSDJdYzNbY0hdYyhbY0hdW2NIXVtjSF0zKVtDSDJdTihbQ0gzXSlbQ0gzXQ==

>  <s_i_glide_gridfile>  (31) 
ATP-Grid

>  <s_lp_Force_Field>  (31) 
OPLS_2005

>  <s_lp_Variant>  (31) 
rxn502a____EMOL530803____EMOL44820718____EMOL2873214-1

>  <s_lp_label>  (31) 
2821_sdstereoexpander_1_neutralizer_1_epik_1_stereoizer_1

>  <s_m_source_file>  (31) 
ATP-VSW-LIGPREP-002-in.maegz

>  <s_sd_BIOSOLVEIT.INFINISEE\_QUERY\_NAME>  (31) 
Ref-Lig

>  <s_sd_BIOSOLVEIT.INFINISEE\_QUERY\_SMILES>  (31) 
S(c1nc2c(cc1C[NH2+]Cc3ccc(cc3)C[NH+](C)C)cccc2)Cc4ccccc4

>  <s_sd_BIOSOLVEIT.INFINISEE\_REACTION\_NAME>  (31) 
rxn502a

>  <s_sd_BIOSOLVEIT.INFINISEE\_REAGENT1\_NAME>  (31) 
EMOL530803

>  <s_sd_BIOSOLVEIT.INFINISEE\_REAGENT1\_SMILES>  (31) 
O=C(O)C#Cc1ccccc1

>  <s_sd_BIOSOLVEIT.INFINISEE\_REAGENT2\_NAME>  (31) 
EMOL44820718

>  <s_sd_BIOSOLVEIT.INFINISEE\_REAGENT2\_SMILES>  (31) 
Ic1cnc(N)c(F)c1

>  <s_sd_BIOSOLVEIT.INFINISEE\_REAGENT3\_NAME>  (31) 
EMOL2873214

>  <s_sd_BIOSOLVEIT.INFINISEE\_REAGENT3\_SMILES>  (31) 
N(Cc1cc(ccc1)CN)(C)C

>  <s_sd_BIOSOLVEIT.INFINISEE\_SPACE>  (31) 
eXplore_7tr_2022-12

>  <s_vsw_compound_code>  (31) 
90242

>  <s_vsw_variant>  (31) 
90242-1

>  <r_epik_Charging_Adjusted_Penalty>  (31) 
0.088195370499548398

>  <r_epik_Ionization_Penalty>  (31) 
0.0441

>  <r_epik_Ionization_Penalty_Charging>  (31) 
0.0441

>  <r_epik_Ionization_Penalty_Neutral>  (31) 
0

>  <r_epik_State_Penalty>  (31) 
0.0441

>  <r_i_docking_score>  (31) 
-6.28735821177687

>  <r_i_glide_ecoul>  (31) 
-8.5576972961425799

>  <r_i_glide_eff_state_penalty>  (31) 
0.0441

>  <r_i_glide_einternal>  (31) 
3.0866422653198202

>  <r_i_glide_emodel>  (31) 
-74.958466193830404

>  <r_i_glide_energy>  (31) 
-51.509101867675803

>  <r_i_glide_erotb>  (31) 
0.84425855915255898

>  <r_i_glide_esite>  (31) 
-0.13655671684415799

>  <r_i_glide_evdw>  (31) 
-42.951404571533203

>  <r_i_glide_gscore>  (31) 
-6.3314582117768703

>  <r_i_glide_hbond>  (31) 
-0.13995600385006901

>  <r_i_glide_ligand_efficiency>  (31) 
-0.20957860705922901

>  <r_i_glide_ligand_efficiency_ln>  (31) 
-1.4285562919703401

>  <r_i_glide_ligand_efficiency_sa>  (31) 
-0.65120945966867005

>  <r_i_glide_lipo>  (31) 
-2.19588329579015

>  <r_i_glide_metal>  (31) 
-0

>  <r_i_glide_rewards>  (31) 
-1.272095931447

>  <r_lp_Energy>  (31) 
20.141065999999999

>  <r_lp_tautomer_probability>  (31) 
0.999999999999999

>  <r_qp_ACxDN^.5/SA>  (31) 
0.011607299999999999

>  <r_qp_CIQPlogS>  (31) 
-4.7839999999999998

>  <r_qp_EA(eV)>  (31) 
0.45600000000000002

>  <r_qp_FISA>  (31) 
100.98399999999999

>  <r_qp_FOSA>  (31) 
223.005

>  <r_qp_IP(eV)>  (31) 
8.3049999999999997

>  <r_qp_Jm>  (31) 
0.00038919620878071198

>  <r_qp_PISA>  (31) 
425.90100000000001

>  <r_qp_PSA>  (31) 
69.867000000000004

>  <r_qp_PercentHumanOralAbsorption>  (31) 
95.563000000000002

>  <r_qp_QPPCaco>  (31) 
272.375

>  <r_qp_QPPMDCK>  (31) 
228.09299999999999

>  <r_qp_QPlogBB>  (31) 
-0.60799999999999998

>  <r_qp_QPlogHERG>  (31) 
-8.3030000000000008

>  <r_qp_QPlogKhsa>  (31) 
0.64000000000000001

>  <r_qp_QPlogKp>  (31) 
-3.1749999999999998

>  <r_qp_QPlogPC16>  (31) 
15.098000000000001

>  <r_qp_QPlogPo/w>  (31) 
4.2750000000000004

>  <r_qp_QPlogPoct>  (31) 
22.600000000000001

>  <r_qp_QPlogPw>  (31) 
12.791

>  <r_qp_QPlogS>  (31) 
-5.8399999999999999

>  <r_qp_QPpolrz>  (31) 
47.463000000000001

>  <r_qp_SASA>  (31) 
791.94899999999996

>  <r_qp_SAamideO>  (31) 
0

>  <r_qp_SAfluorine>  (31) 
42.058999999999997

>  <r_qp_WPSA>  (31) 
42.058999999999997

>  <r_qp_accptHB>  (31) 
6.5

>  <r_qp_dip^2/V>  (31) 
0.031214499999999999

>  <r_qp_dipole>  (31) 
6.5309999999999997

>  <r_qp_donorHB>  (31) 
2

>  <r_qp_glob>  (31) 
0.75197789999999998

>  <r_qp_mol_MW>  (31) 
402.47000000000003

>  <r_qp_volume>  (31) 
1366.4870000000001

>  <r_sd_BIOSOLVEIT.INFINISEE\_FTREES\_SIMILARITY>  (31) 
0.90600000000000003

>  <r_sd_BIOSOLVEIT.LOGP>  (31) 
2.4674999999999998

>  <r_sd_BIOSOLVEIT.MOLECULAR\_WEIGHT>  (31) 
403.47899999999998

>  <r_sd_BIOSOLVEIT.TPSA>  (31) 
58.460000000000001

>  <i_epik_Tot_Q>  (31) 
1

>  <i_epik_Tot_abs_Q>  (31) 
1

>  <i_f3d_flags>  (31) 
0

>  <i_i_glide_confnum>  (31) 
3

>  <i_i_glide_lignum>  (31) 
1376

>  <i_i_glide_posenum>  (31) 
6

>  <i_i_glide_rotatable_bonds>  (31) 
9

>  <i_lp_mmshare_version>  (31) 
65135

>  <i_m_ct_format>  (31) 
2

>  <i_m_source_file_index>  (31) 
2821

>  <i_qp_#NandO>  (31) 
5

>  <i_qp_#acid>  (31) 
0

>  <i_qp_#amide>  (31) 
0

>  <i_qp_#amidine>  (31) 
0

>  <i_qp_#amine>  (31) 
1

>  <i_qp_#in34>  (31) 
0

>  <i_qp_#in56>  (31) 
18

>  <i_qp_#metab>  (31) 
6

>  <i_qp_#nonHatm>  (31) 
30

>  <i_qp_#noncon>  (31) 
0

>  <i_qp_#ringatoms>  (31) 
18

>  <i_qp_#rotor>  (31) 
8

>  <i_qp_#rtvFG>  (31) 
0

>  <i_qp_#stars>  (31) 
0

>  <i_qp_CNS>  (31) 
1

>  <i_qp_HumanOralAbsorption>  (31) 
3

>  <i_qp_RuleOfFive>  (31) 
0

>  <i_qp_RuleOfThree>  (31) 
1

>  <i_sd_BIOSOLVEIT.INFINISEE\_RESULT\_RANK>  (31) 
65685

>  <i_sd_version>  (31) 
0

>  <b_lp_Chiralities_Consistent>  (31) 
1

>  <b_sd_chiral_flag>  (31) 
0

>  <acquisition_id>  (31) 
ATP-ACQ-0031

>  <canonical_id>  (31) 
ATP-HTVS-98E751432A52

>  <compound_code>  (31) 
90242

>  <title>  (31) 
rxn502a____EMOL530803____EMOL44820718____EMOL2873214

>  <variant>  (31) 
90242-1

>  <selection_arm>  (31) 
exploitation

>  <priority>  (31) 
P1

>  <wave>  (31) 
2

>  <source_file>  (31) 
运行/运行/ATP-VSW/ATP-VSW-DOCK_HTVS_1-002_lib.maegz

>  <canonical_smiles>  (31) 
C[NH+](C)Cc1cccc(CNc2cnc(NC(=O)C#Cc3ccccc3)c(F)c2)c1

$$$$
ATP-ACQ-0032
     RDKit          3D

 56 59  0  0  0  0  0  0  0  0999 V2000
  192.8426  186.6346  161.4165 Cl  0  0  0  0  0  0  0  0  0  0  0  0
  194.4362  186.3456  160.8073 C   0  0  0  0  0  0  0  0  0  0  0  0
  194.7555  185.1552  160.1319 C   0  0  0  0  0  0  0  0  0  0  0  0
  196.0669  184.9351  159.6697 C   0  0  0  0  0  0  0  0  0  0  0  0
  197.0588  185.9233  159.8639 C   0  0  0  0  0  0  0  0  0  0  0  0
  196.7474  187.1111  160.5317 C   0  0  0  0  0  0  0  0  0  0  0  0
  195.4117  187.3316  160.9981 C   0  0  0  0  0  0  0  0  0  0  0  0
  198.4840  185.7097  159.3778 C   0  0  1  0  0  0  0  0  0  0  0  0
  198.7450  186.3539  158.0600 N   0  0  2  0  0  0  0  0  0  0  0  0
  200.1011  186.0588  157.5237 C   0  0  1  0  0  0  0  0  0  0  0  0
  200.4107  184.5780  157.4407 C   0  0  0  0  0  0  0  0  0  0  0  0
  199.8198  183.7989  156.4298 C   0  0  0  0  0  0  0  0  0  0  0  0
  200.0865  182.4112  156.3323 C   0  0  0  0  0  0  0  0  0  0  0  0
  199.5362  181.6015  155.3581 O   0  0  0  0  0  0  0  0  0  0  0  0
  198.5295  182.1349  154.5058 C   0  0  1  0  0  0  0  0  0  0  0  0
  198.0858  181.1269  153.4632 C   0  0  0  0  0  0  0  0  0  0  0  0
  199.0050  180.1902  152.9430 C   0  0  0  0  0  0  0  0  0  0  0  0
  198.5969  179.2666  151.9608 C   0  0  0  0  0  0  0  0  0  0  0  0
  197.2717  179.2854  151.4875 C   0  0  0  0  0  0  0  0  0  0  0  0
  196.3536  180.2248  151.9965 C   0  0  0  0  0  0  0  0  0  0  0  0
  196.7607  181.1486  152.9787 C   0  0  0  0  0  0  0  0  0  0  0  0
  200.9725  181.8199  157.2677 C   0  0  0  0  0  0  0  0  0  0  0  0
  201.5646  182.6011  158.2921 C   0  0  0  0  0  0  0  0  0  0  0  0
  201.2798  183.9781  158.3784 C   0  0  0  0  0  0  0  0  0  0  0  0
  202.4424  182.0115  159.2256 C   0  0  0  0  0  0  0  0  0  0  0  0
  202.7472  180.6372  159.1358 C   0  0  0  0  0  0  0  0  0  0  0  0
  202.1460  179.8553  158.1339 C   0  0  0  0  0  0  0  0  0  0  0  0
  201.2718  180.4426  157.1979 C   0  0  0  0  0  0  0  0  0  0  0  0
  198.4749  187.8197  157.9940 C   0  0  1  0  0  0  0  0  0  0  0  0
  197.8401  188.1182  156.6538 C   0  0  0  0  0  0  0  0  0  0  0  0
  196.6547  187.7377  156.5140 O   0  0  0  0  0  0  0  0  0  0  0  0
  198.5305  188.6748  155.7813 O   0  0  0  0  0  0  0  0  0  0  0  0
  193.9921  184.4079  159.9696 H   0  0  0  0  0  0  0  0  0  0  0  0
  196.3083  184.0036  159.1647 H   0  0  0  0  0  0  0  0  0  0  0  0
  197.4784  187.8431  160.7733 H   0  0  0  0  0  0  0  0  0  0  0  0
  195.1872  188.2535  161.5130 H   0  0  0  0  0  0  0  0  0  0  0  0
  199.2063  186.0541  160.1188 H   0  0  0  0  0  0  0  0  0  0  0  0
  198.6359  184.6273  159.3119 H   0  0  0  0  0  0  0  0  0  0  0  0
  200.2049  186.4877  156.5255 H   0  0  0  0  0  0  0  0  0  0  0  0
  200.8526  186.5451  158.1421 H   0  0  0  0  0  0  0  0  0  0  0  0
  199.1561  184.2955  155.7375 H   0  0  0  0  0  0  0  0  0  0  0  0
  197.6730  182.4389  155.1107 H   0  0  0  0  0  0  0  0  0  0  0  0
  198.8936  183.0077  153.9624 H   0  0  0  0  0  0  0  0  0  0  0  0
  200.0260  180.1739  153.2959 H   0  0  0  0  0  0  0  0  0  0  0  0
  199.3018  178.5460  151.5722 H   0  0  0  0  0  0  0  0  0  0  0  0
  196.9619  178.5818  150.7303 H   0  0  0  0  0  0  0  0  0  0  0  0
  195.3367  180.2366  151.6341 H   0  0  0  0  0  0  0  0  0  0  0  0
  196.0542  181.8716  153.3626 H   0  0  0  0  0  0  0  0  0  0  0  0
  201.7282  184.5697  159.1644 H   0  0  0  0  0  0  0  0  0  0  0  0
  202.8779  182.6034  160.0156 H   0  0  0  0  0  0  0  0  0  0  0  0
  203.4127  180.1940  159.8625 H   0  0  0  0  0  0  0  0  0  0  0  0
  202.3386  178.7935  158.0797 H   0  0  0  0  0  0  0  0  0  0  0  0
  200.8303  179.8204  156.4347 H   0  0  0  0  0  0  0  0  0  0  0  0
  197.7399  188.1802  158.7417 H   0  0  0  0  0  0  0  0  0  0  0  0
  199.3942  188.3960  158.1689 H   0  0  0  0  0  0  0  0  0  0  0  0
  198.0728  185.9425  157.4234 H   0  0  0  0  0  0  0  0  0  0  0  0
  1  2  1  0
  2  3  1  0
  2  7  2  0
  3  4  2  0
  3 33  1  0
  4  5  1  0
  4 34  1  0
  5  6  2  0
  5  8  1  0
  6  7  1  0
  6 35  1  0
  7 36  1  0
  8  9  1  0
  8 37  1  1
  8 38  1  0
  9 10  1  0
  9 29  1  0
  9 56  1  6
 10 11  1  0
 10 39  1  6
 10 40  1  0
 11 12  1  0
 11 24  2  0
 12 13  2  0
 12 41  1  0
 13 14  1  0
 13 22  1  0
 14 15  1  0
 15 16  1  0
 15 42  1  1
 15 43  1  0
 16 17  2  0
 16 21  1  0
 17 18  1  0
 17 44  1  0
 18 19  2  0
 18 45  1  0
 19 20  1  0
 19 46  1  0
 20 21  2  0
 20 47  1  0
 21 48  1  0
 22 23  1  0
 22 28  2  0
 23 24  1  0
 23 25  2  0
 24 49  1  0
 25 26  1  0
 25 50  1  0
 26 27  2  0
 26 51  1  0
 27 28  1  0
 27 52  1  0
 28 53  1  0
 29 30  1  0
 29 54  1  1
 29 55  1  0
 30 31  1  0
 30 32  2  0
M  CHG  2   9   1  31  -1
M  END
>  <s_epik_cmdline>  (32) 
J2VwaWtfcHl0aG9uJywgJy1waCcsICc3LjAwMDAwMCcsICctcGh0JywgJzIuMDAwMDAwJywgJy1tcycsICcxNicsICctdG4nLCAnOCcsICctbWEnLCAnMjAwJywgJy1pbWFlJywgJzxpbmZpbGUubWFlPicsICctb21hZScsICc8b3V0ZmlsZS5tYWU+Jw==

>  <s_epik_input>  (32) 
Q2xjMVtjSF1bY0hdYyhbY0hdW2NIXTEpW0NIMl1OKFtDSDJdQyg9TylbT0hdKVtDSDJdYyhbY0hdYyhjMjMpW2NIXVtjSF1bY0hdW2NIXTMpW2NIXWMyT1tDSDJdYzRbY0hdW2NIXVtjSF1bY0hdW2NIXTQ=

>  <s_i_glide_gridfile>  (32) 
ATP-Grid

>  <s_lp_Force_Field>  (32) 
OPLS_2005

>  <s_lp_Variant>  (32) 
m_275532bba____13829954____13834314-1

>  <s_lp_label>  (32) 
2134_sdstereoexpander_1_neutralizer_1_epik_1_stereoizer_1

>  <s_m_source_file>  (32) 
ATP-VSW-LIGPREP-003-in.maegz

>  <s_sd_BIOSOLVEIT.INFINISEE\_QUERY\_NAME>  (32) 
Ref-Lig

>  <s_sd_BIOSOLVEIT.INFINISEE\_QUERY\_SMILES>  (32) 
S(c1nc2c(cc1C[NH2+]Cc3ccc(cc3)C[NH+](C)C)cccc2)Cc4ccccc4

>  <s_sd_BIOSOLVEIT.INFINISEE\_REACTION\_NAME>  (32) 
m_275532bba

>  <s_sd_BIOSOLVEIT.INFINISEE\_REAGENT1\_SMILES>  (32) 
[R1*]N(Cc1ccc(Cl)cc1)CC(=O)O

>  <s_sd_BIOSOLVEIT.INFINISEE\_REAGENT2\_SMILES>  (32) 
[R1*]Cc1cc(OCc2ccccc2)c3c(c1)cccc3

>  <s_sd_BIOSOLVEIT.INFINISEE\_SPACE>  (32) 
REALSpace_44bn_2023-08

>  <s_vsw_compound_code>  (32) 
68259

>  <s_vsw_variant>  (32) 
68259-1

>  <r_epik_Charging_Adjusted_Penalty>  (32) 
0.218320121959515

>  <r_epik_Ionization_Penalty>  (32) 
0.10920000000000001

>  <r_epik_Ionization_Penalty_Charging>  (32) 
0.10920000000000001

>  <r_epik_Ionization_Penalty_Neutral>  (32) 
0

>  <r_epik_State_Penalty>  (32) 
0.10920000000000001

>  <r_i_docking_score>  (32) 
-3.61118922669315

>  <r_i_glide_ecoul>  (32) 
-3.05253958702087

>  <r_i_glide_eff_state_penalty>  (32) 
0.10920000000000001

>  <r_i_glide_einternal>  (32) 
2.3113541603088401

>  <r_i_glide_emodel>  (32) 
-38.434374273099998

>  <r_i_glide_energy>  (32) 
-31.731910467147799

>  <r_i_glide_erotb>  (32) 
0.70444644444601101

>  <r_i_glide_esite>  (32) 
0

>  <r_i_glide_evdw>  (32) 
-28.679370880126999

>  <r_i_glide_gscore>  (32) 
-3.72038922669315

>  <r_i_glide_hbond>  (32) 
-0.101289316806533

>  <r_i_glide_ligand_efficiency>  (32) 
-0.11284966333416099

>  <r_i_glide_ligand_efficiency_ln>  (32) 
-0.80864370515712103

>  <r_i_glide_ligand_efficiency_sa>  (32) 
-0.35827534816791301

>  <r_i_glide_lipo>  (32) 
-1.95374956969175

>  <r_i_glide_metal>  (32) 
-0

>  <r_i_glide_rewards>  (32) 
-0.477947302581404

>  <r_lp_Energy>  (32) 
16.274737999999999

>  <r_qp_ACxDN^.5/SA>  (32) 
0.0062694999999999999

>  <r_qp_CIQPlogS>  (32) 
-6.6660000000000004

>  <r_qp_EA(eV)>  (32) 
0.66600000000000004

>  <r_qp_FISA>  (32) 
76.322000000000003

>  <r_qp_FOSA>  (32) 
107.63500000000001

>  <r_qp_IP(eV)>  (32) 
8.3469999999999995

>  <r_qp_Jm>  (32) 
0.00048815211677755599

>  <r_qp_PISA>  (32) 
502.04000000000002

>  <r_qp_PSA>  (32) 
56.906999999999996

>  <r_qp_PercentHumanOralAbsorption>  (32) 
90.337999999999994

>  <r_qp_QPPCaco>  (32) 
118.20699999999999

>  <r_qp_QPPMDCK>  (32) 
170.90700000000001

>  <r_qp_QPlogBB>  (32) 
-0.20799999999999999

>  <r_qp_QPlogHERG>  (32) 
-6.1479999999999997

>  <r_qp_QPlogKhsa>  (32) 
0.93300000000000005

>  <r_qp_QPlogKp>  (32) 
-2.3559999999999999

>  <r_qp_QPlogPC16>  (32) 
16.021000000000001

>  <r_qp_QPlogPo/w>  (32) 
4.4909999999999997

>  <r_qp_QPlogPoct>  (32) 
20.771999999999998

>  <r_qp_QPlogPw>  (32) 
9.6600000000000001

>  <r_qp_QPlogS>  (32) 
-6.6050000000000004

>  <r_qp_QPpolrz>  (32) 
48.581000000000003

>  <r_qp_SASA>  (32) 
757.63900000000001

>  <r_qp_SAamideO>  (32) 
0

>  <r_qp_SAfluorine>  (32) 
0

>  <r_qp_WPSA>  (32) 
71.641999999999996

>  <r_qp_accptHB>  (32) 
4.75

>  <r_qp_dip^2/V>  (32) 
0.019450100000000001

>  <r_qp_dipole>  (32) 
5.2039999999999997

>  <r_qp_donorHB>  (32) 
1

>  <r_qp_glob>  (32) 
0.79589580000000004

>  <r_qp_mol_MW>  (32) 
445.94400000000002

>  <r_qp_volume>  (32) 
1392.2919999999999

>  <r_sd_BIOSOLVEIT.INFINISEE\_FTREES\_SIMILARITY>  (32) 
0.90100000000000002

>  <r_sd_BIOSOLVEIT.LOGP>  (32) 
3.4072

>  <r_sd_BIOSOLVEIT.MOLECULAR\_WEIGHT>  (32) 
445.94400000000002

>  <r_sd_BIOSOLVEIT.TPSA>  (32) 
53.799999999999997

>  <i_epik_Tot_Q>  (32) 
0

>  <i_epik_Tot_abs_Q>  (32) 
2

>  <i_f3d_flags>  (32) 
0

>  <i_i_glide_confnum>  (32) 
3

>  <i_i_glide_lignum>  (32) 
793

>  <i_i_glide_posenum>  (32) 
4

>  <i_i_glide_rotatable_bonds>  (32) 
9

>  <i_lp_mmshare_version>  (32) 
65135

>  <i_m_ct_format>  (32) 
2

>  <i_m_source_file_index>  (32) 
2134

>  <i_qp_#NandO>  (32) 
4

>  <i_qp_#acid>  (32) 
1

>  <i_qp_#amide>  (32) 
0

>  <i_qp_#amidine>  (32) 
0

>  <i_qp_#amine>  (32) 
1

>  <i_qp_#in34>  (32) 
0

>  <i_qp_#in56>  (32) 
22

>  <i_qp_#metab>  (32) 
6

>  <i_qp_#nonHatm>  (32) 
32

>  <i_qp_#noncon>  (32) 
0

>  <i_qp_#ringatoms>  (32) 
22

>  <i_qp_#rotor>  (32) 
9

>  <i_qp_#rtvFG>  (32) 
0

>  <i_qp_#stars>  (32) 
2

>  <i_qp_CNS>  (32) 
0

>  <i_qp_HumanOralAbsorption>  (32) 
1

>  <i_qp_RuleOfFive>  (32) 
0

>  <i_qp_RuleOfThree>  (32) 
1

>  <i_sd_BIOSOLVEIT.INFINISEE\_REAGENT1\_NAME>  (32) 
13829954

>  <i_sd_BIOSOLVEIT.INFINISEE\_REAGENT2\_NAME>  (32) 
13834314

>  <i_sd_BIOSOLVEIT.INFINISEE\_RESULT\_RANK>  (32) 
99409

>  <i_sd_version>  (32) 
0

>  <b_lp_Chiralities_Consistent>  (32) 
1

>  <b_sd_chiral_flag>  (32) 
0

>  <acquisition_id>  (32) 
ATP-ACQ-0032

>  <canonical_id>  (32) 
ATP-HTVS-0C253F9D7643

>  <compound_code>  (32) 
68259

>  <title>  (32) 
m_275532bba____13829954____13834314

>  <variant>  (32) 
68259-1

>  <selection_arm>  (32) 
descriptor_diversity

>  <priority>  (32) 
P1

>  <wave>  (32) 
2

>  <source_file>  (32) 
运行/运行/ATP-VSW/ATP-VSW-DOCK_HTVS_1-003_lib/ATP-VSW-DOCK_HTVS_1-003_lib.mae

>  <canonical_smiles>  (32) 
O=C([O-])C[N@H+](Cc1ccc(Cl)cc1)Cc1cc(OCc2ccccc2)c2ccccc2c1

$$$$
ATP-ACQ-0033
     RDKit          3D

 51 54  0  0  0  0  0  0  0  0999 V2000
  201.9823  177.7534  151.7760 O   0  0  0  0  0  0  0  0  0  0  0  0
  201.2325  177.8096  152.7476 C   0  0  0  0  0  0  0  0  0  0  0  0
  200.0857  178.5071  152.9028 N   0  0  0  0  0  0  0  0  0  0  0  0
  199.4873  178.2583  154.1828 N   0  0  0  0  0  0  0  0  0  0  0  0
  200.3388  177.3542  154.8420 C   0  0  0  0  0  0  0  0  0  0  0  0
  201.3940  177.0507  154.0038 C   0  0  0  0  0  0  0  0  0  0  0  0
  202.4243  176.1688  154.3765 C   0  0  0  0  0  0  0  0  0  0  0  0
  202.3575  175.6042  155.6710 C   0  0  0  0  0  0  0  0  0  0  0  0
  201.2927  175.9334  156.5454 C   0  0  0  0  0  0  0  0  0  0  0  0
  200.2597  176.8128  156.1377 C   0  0  0  0  0  0  0  0  0  0  0  0
  198.7531  179.2630  154.8333 C   0  0  0  0  0  0  0  0  0  0  0  0
  197.4575  179.6012  154.3881 C   0  0  0  0  0  0  0  0  0  0  0  0
  196.7722  180.6978  154.9648 C   0  0  0  0  0  0  0  0  0  0  0  0
  197.3493  181.4012  156.0350 C   0  0  0  0  0  0  0  0  0  0  0  0
  198.6258  181.0370  156.5069 C   0  0  0  0  0  0  0  0  0  0  0  0
  199.3162  179.9610  155.9212 C   0  0  0  0  0  0  0  0  0  0  0  0
  196.5919  182.5500  156.6800 C   0  0  1  0  0  0  0  0  0  0  0  0
  195.7711  182.1033  157.8350 N   0  0  1  0  0  0  0  0  0  0  0  0
  196.5662  181.5104  158.9322 C   0  0  2  0  0  0  0  0  0  0  0  0
  194.9035  183.1876  158.3524 C   0  0  2  0  0  0  0  0  0  0  0  0
  199.4469  179.3404  151.8634 C   0  0  1  0  0  0  0  0  0  0  0  0
  198.8970  178.5763  150.6615 C   0  0  0  0  0  0  0  0  0  0  0  0
  198.4519  179.3190  149.5473 C   0  0  0  0  0  0  0  0  0  0  0  0
  197.9657  178.6676  148.3980 C   0  0  0  0  0  0  0  0  0  0  0  0
  197.9301  177.2607  148.3513 C   0  0  0  0  0  0  0  0  0  0  0  0
  198.3493  176.5066  149.4645 C   0  0  0  0  0  0  0  0  0  0  0  0
  198.8081  177.1629  150.6247 C   0  0  0  0  0  0  0  0  0  0  0  0
  203.2397  175.9427  153.7033 H   0  0  0  0  0  0  0  0  0  0  0  0
  203.1379  174.9380  156.0119 H   0  0  0  0  0  0  0  0  0  0  0  0
  201.2705  175.5174  157.5394 H   0  0  0  0  0  0  0  0  0  0  0  0
  199.4457  177.0639  156.8049 H   0  0  0  0  0  0  0  0  0  0  0  0
  196.9847  179.0519  153.5948 H   0  0  0  0  0  0  0  0  0  0  0  0
  195.8074  180.9856  154.5759 H   0  0  0  0  0  0  0  0  0  0  0  0
  199.0794  181.5652  157.3287 H   0  0  0  0  0  0  0  0  0  0  0  0
  200.2906  179.6958  156.3082 H   0  0  0  0  0  0  0  0  0  0  0  0
  197.2996  183.3194  156.9846 H   0  0  0  0  0  0  0  0  0  0  0  0
  195.9472  183.0012  155.9249 H   0  0  0  0  0  0  0  0  0  0  0  0
  197.2674  182.2382  159.3335 H   0  0  0  0  0  0  0  0  0  0  0  0
  197.1425  180.6369  158.6168 H   0  0  0  0  0  0  0  0  0  0  0  0
  195.9007  181.1785  159.7261 H   0  0  0  0  0  0  0  0  0  0  0  0
  195.5025  184.0200  158.7245 H   0  0  0  0  0  0  0  0  0  0  0  0
  194.2729  182.8274  159.1663 H   0  0  0  0  0  0  0  0  0  0  0  0
  194.2419  183.5829  157.5905 H   0  0  0  0  0  0  0  0  0  0  0  0
  198.6153  179.9524  152.2135 H   0  0  0  0  0  0  0  0  0  0  0  0
  200.1961  180.0585  151.5138 H   0  0  0  0  0  0  0  0  0  0  0  0
  198.4840  180.3990  149.5785 H   0  0  0  0  0  0  0  0  0  0  0  0
  197.6414  179.2485  147.5448 H   0  0  0  0  0  0  0  0  0  0  0  0
  197.5773  176.7588  147.4615 H   0  0  0  0  0  0  0  0  0  0  0  0
  198.3080  175.4257  149.4379 H   0  0  0  0  0  0  0  0  0  0  0  0
  199.0927  176.5474  151.4643 H   0  0  0  0  0  0  0  0  0  0  0  0
  195.1856  181.3479  157.4975 H   0  0  0  0  0  0  0  0  0  0  0  0
  1  2  2  0
  2  3  1  0
  2  6  1  0
  3  4  1  0
  3 21  1  0
  4  5  1  0
  4 11  1  0
  5  6  1  0
  5 10  2  0
  6  7  2  0
  7  8  1  0
  7 28  1  0
  8  9  2  0
  8 29  1  0
  9 10  1  0
  9 30  1  0
 10 31  1  0
 11 12  1  0
 11 16  2  0
 12 13  2  0
 12 32  1  0
 13 14  1  0
 13 33  1  0
 14 15  2  0
 14 17  1  0
 15 16  1  0
 15 34  1  0
 16 35  1  0
 17 18  1  0
 17 36  1  1
 17 37  1  0
 18 19  1  0
 18 20  1  0
 18 51  1  6
 19 38  1  1
 19 39  1  0
 19 40  1  0
 20 41  1  1
 20 42  1  0
 20 43  1  0
 21 22  1  0
 21 44  1  1
 21 45  1  0
 22 23  2  0
 22 27  1  0
 23 24  1  0
 23 46  1  0
 24 25  2  0
 24 47  1  0
 25 26  1  0
 25 48  1  0
 26 27  2  0
 26 49  1  0
 27 50  1  0
M  CHG  1  18   1
M  END
>  <s_epik_cmdline>  (33) 
J2VwaWtfcHl0aG9uJywgJy1waCcsICc3LjAwMDAwMCcsICctcGh0JywgJzIuMDAwMDAwJywgJy1tcycsICcxNicsICctdG4nLCAnOCcsICctbWEnLCAnMjAwJywgJy1pbWFlJywgJzxpbmZpbGUubWFlPicsICctb21hZScsICc8b3V0ZmlsZS5tYWU+Jw==

>  <s_epik_input>  (33) 
W2NIXTFbY0hdW2NIXVtjSF1bY0hdYzFbQ0gyXW4oYyg9TyljKGMyMylbY0hdW2NIXVtjSF1bY0hdMyluMi1jNFtjSF1bY0hdYyhbY0hdW2NIXTQpW0NIMl1OKFtDSDNdKVtDSDNd

>  <s_i_glide_gridfile>  (33) 
ATP-Grid

>  <s_lp_Force_Field>  (33) 
OPLS_2005

>  <s_lp_Variant>  (33) 
N-ArylationHeterocycle____821571____76754741-1

>  <s_lp_label>  (33) 
652_sdstereoexpander_1_neutralizer_1_epik_1_stereoizer_1

>  <s_m_source_file>  (33) 
ATP-VSW-LIGPREP-002-in.maegz

>  <s_sd_BIOSOLVEIT.INFINISEE\_QUERY\_NAME>  (33) 
Ref-Lig

>  <s_sd_BIOSOLVEIT.INFINISEE\_QUERY\_SMILES>  (33) 
S(c1nc2c(cc1C[NH2+]Cc3ccc(cc3)C[NH+](C)C)cccc2)Cc4ccccc4

>  <s_sd_BIOSOLVEIT.INFINISEE\_REACTION\_NAME>  (33) 
N-ArylationHeterocycle

>  <s_sd_BIOSOLVEIT.INFINISEE\_REAGENT1\_SMILES>  (33) 
OB(O)c1ccc(cc1)CN(C)C

>  <s_sd_BIOSOLVEIT.INFINISEE\_REAGENT2\_SMILES>  (33) 
O=C1N(Nc2c1cccc2)Cc3ccccc3

>  <s_sd_BIOSOLVEIT.INFINISEE\_SPACE>  (33) 
KnowledgeSpace_290tr_2019-05

>  <s_vsw_compound_code>  (33) 
20834

>  <s_vsw_variant>  (33) 
20834-1

>  <r_epik_Charging_Adjusted_Penalty>  (33) 
0.11443793256294101

>  <r_epik_Ionization_Penalty>  (33) 
0.057200000000000001

>  <r_epik_Ionization_Penalty_Charging>  (33) 
0.057200000000000001

>  <r_epik_Ionization_Penalty_Neutral>  (33) 
0

>  <r_epik_State_Penalty>  (33) 
0.057200000000000001

>  <r_i_docking_score>  (33) 
-4.0748802338123697

>  <r_i_glide_ecoul>  (33) 
-6.8391137123107901

>  <r_i_glide_eff_state_penalty>  (33) 
0.057200000000000001

>  <r_i_glide_einternal>  (33) 
0.28290390968322798

>  <r_i_glide_emodel>  (33) 
-48.3863676554856

>  <r_i_glide_energy>  (33) 
-34.496929645538302

>  <r_i_glide_erotb>  (33) 
0.596337630261489

>  <r_i_glide_esite>  (33) 
-0.110451708590662

>  <r_i_glide_evdw>  (33) 
-27.6578159332275

>  <r_i_glide_gscore>  (33) 
-4.1320802338123697

>  <r_i_glide_hbond>  (33) 
-0.0331583938599447

>  <r_i_glide_ligand_efficiency>  (33) 
-0.15092149014119899

>  <r_i_glide_ligand_efficiency_ln>  (33) 
-0.94856493878049097

>  <r_i_glide_ligand_efficiency_sa>  (33) 
-0.45276446992618502

>  <r_i_glide_lipo>  (33) 
-0.98590630425771997

>  <r_i_glide_metal>  (33) 
-0

>  <r_i_glide_rewards>  (33) 
-1.1901436038575399

>  <r_lp_Energy>  (33) 
42.733891999999997

>  <r_qp_ACxDN^.5/SA>  (33) 
0

>  <r_qp_CIQPlogS>  (33) 
-4.0919999999999996

>  <r_qp_EA(eV)>  (33) 
0.39200000000000002

>  <r_qp_FISA>  (33) 
46.006

>  <r_qp_FOSA>  (33) 
183.15199999999999

>  <r_qp_IP(eV)>  (33) 
8.4239999999999995

>  <r_qp_Jm>  (33) 
1.2173333993329201

>  <r_qp_PISA>  (33) 
380.77999999999997

>  <r_qp_PSA>  (33) 
39.503999999999998

>  <r_qp_PercentHumanOralAbsorption>  (33) 
100

>  <r_qp_QPPCaco>  (33) 
904.74400000000003

>  <r_qp_QPPMDCK>  (33) 
491.178

>  <r_qp_QPlogBB>  (33) 
0.317

>  <r_qp_QPlogHERG>  (33) 
-6.1630000000000003

>  <r_qp_QPlogKhsa>  (33) 
0.185

>  <r_qp_QPlogKp>  (33) 
-2.7050000000000001

>  <r_qp_QPlogPC16>  (33) 
11.973000000000001

>  <r_qp_QPlogPo/w>  (33) 
3.4830000000000001

>  <r_qp_QPlogPoct>  (33) 
17.268999999999998

>  <r_qp_QPlogPw>  (33) 
9.1180000000000003

>  <r_qp_QPlogS>  (33) 
-2.7629999999999999

>  <r_qp_QPpolrz>  (33) 
40.981999999999999

>  <r_qp_SASA>  (33) 
609.93899999999996

>  <r_qp_SAamideO>  (33) 
0

>  <r_qp_SAfluorine>  (33) 
0

>  <r_qp_WPSA>  (33) 
0

>  <r_qp_accptHB>  (33) 
6

>  <r_qp_dip^2/V>  (33) 
0.038358700000000003

>  <r_qp_dipole>  (33) 
6.6449999999999996

>  <r_qp_donorHB>  (33) 
0

>  <r_qp_glob>  (33) 
0.87088239999999995

>  <r_qp_mol_MW>  (33) 
357.45400000000001

>  <r_qp_volume>  (33) 
1151.1210000000001

>  <r_sd_BIOSOLVEIT.INFINISEE\_FTREES\_SIMILARITY>  (33) 
0.90500000000000003

>  <r_sd_BIOSOLVEIT.LOGP>  (33) 
2.4849999999999999

>  <r_sd_BIOSOLVEIT.MOLECULAR\_WEIGHT>  (33) 
358.46300000000002

>  <r_sd_BIOSOLVEIT.TPSA>  (33) 
31.370000000000001

>  <i_epik_Tot_Q>  (33) 
1

>  <i_epik_Tot_abs_Q>  (33) 
1

>  <i_f3d_flags>  (33) 
0

>  <i_i_glide_confnum>  (33) 
6

>  <i_i_glide_lignum>  (33) 
204

>  <i_i_glide_posenum>  (33) 
10

>  <i_i_glide_rotatable_bonds>  (33) 
5

>  <i_lp_mmshare_version>  (33) 
65135

>  <i_m_ct_format>  (33) 
2

>  <i_m_source_file_index>  (33) 
652

>  <i_qp_#NandO>  (33) 
4

>  <i_qp_#acid>  (33) 
0

>  <i_qp_#amide>  (33) 
0

>  <i_qp_#amidine>  (33) 
0

>  <i_qp_#amine>  (33) 
1

>  <i_qp_#in34>  (33) 
0

>  <i_qp_#in56>  (33) 
21

>  <i_qp_#metab>  (33) 
3

>  <i_qp_#nonHatm>  (33) 
27

>  <i_qp_#noncon>  (33) 
0

>  <i_qp_#ringatoms>  (33) 
21

>  <i_qp_#rotor>  (33) 
4

>  <i_qp_#rtvFG>  (33) 
1

>  <i_qp_#stars>  (33) 
0

>  <i_qp_CNS>  (33) 
1

>  <i_qp_HumanOralAbsorption>  (33) 
3

>  <i_qp_RuleOfFive>  (33) 
0

>  <i_qp_RuleOfThree>  (33) 
0

>  <i_sd_BIOSOLVEIT.INFINISEE\_REAGENT1\_NAME>  (33) 
821571

>  <i_sd_BIOSOLVEIT.INFINISEE\_REAGENT2\_NAME>  (33) 
76754741

>  <i_sd_BIOSOLVEIT.INFINISEE\_RESULT\_RANK>  (33) 
71197

>  <i_sd_version>  (33) 
0

>  <b_lp_Chiralities_Consistent>  (33) 
1

>  <b_sd_chiral_flag>  (33) 
0

>  <acquisition_id>  (33) 
ATP-ACQ-0033

>  <canonical_id>  (33) 
ATP-HTVS-49CF595ADD5C

>  <compound_code>  (33) 
20834

>  <title>  (33) 
N-ArylationHeterocycle____821571____76754741

>  <variant>  (33) 
20834-1

>  <selection_arm>  (33) 
score_calibration

>  <priority>  (33) 
P1

>  <wave>  (33) 
2

>  <source_file>  (33) 
运行/运行/ATP-VSW/ATP-VSW-DOCK_HTVS_1-002_lib.maegz

>  <canonical_smiles>  (33) 
C[NH+](C)Cc1ccc(-n2c3ccccc3c(=O)n2Cc2ccccc2)cc1

$$$$
ATP-ACQ-0034
     RDKit          3D

 52 55  0  0  0  0  0  0  0  0999 V2000
  200.3656  177.1169  158.5160 F   0  0  0  0  0  0  0  0  0  0  0  0
  200.6777  177.0398  157.1996 C   0  0  0  0  0  0  0  0  0  0  0  0
  201.5439  176.0263  156.7388 C   0  0  0  0  0  0  0  0  0  0  0  0
  201.8882  175.9548  155.3808 C   0  0  0  0  0  0  0  0  0  0  0  0
  202.7143  174.9802  154.9425 F   0  0  0  0  0  0  0  0  0  0  0  0
  201.3785  176.9062  154.4781 C   0  0  0  0  0  0  0  0  0  0  0  0
  200.4979  177.9113  154.9257 C   0  0  0  0  0  0  0  0  0  0  0  0
  200.1466  177.9801  156.2930 C   0  0  0  0  0  0  0  0  0  0  0  0
  199.9611  178.9076  153.9484 C   0  0  0  0  0  0  0  0  0  0  0  0
  200.7171  179.5152  153.1931 O   0  0  0  0  0  0  0  0  0  0  0  0
  198.6224  179.0324  153.9296 N   0  0  0  0  0  0  0  0  0  0  0  0
  197.8829  179.6634  152.8834 C   0  0  0  0  0  0  0  0  0  0  0  0
  197.0889  180.8033  153.1411 C   0  0  0  0  0  0  0  0  0  0  0  0
  196.9884  181.3522  154.4682 C   0  0  0  0  0  0  0  0  0  0  0  0
  196.9277  181.7045  155.6327 C   0  0  0  0  0  0  0  0  0  0  0  0
  196.9106  182.1179  157.0183 C   0  0  1  0  0  0  0  0  0  0  0  0
  195.5463  181.8676  157.5094 N   0  0  1  0  0  0  0  0  0  0  0  0
  195.3239  182.1145  158.9444 C   0  0  1  0  0  0  0  0  0  0  0  0
  195.7263  183.5200  159.3712 C   0  0  0  0  0  0  0  0  0  0  0  0
  197.0995  183.8631  159.4927 C   0  0  0  0  0  0  0  0  0  0  0  0
  197.4818  185.1797  159.7379 C   0  0  0  0  0  0  0  0  0  0  0  0
  196.5079  186.1644  160.0059 C   0  0  0  0  0  0  0  0  0  0  0  0
  195.1466  185.8213  159.9584 C   0  0  0  0  0  0  0  0  0  0  0  0
  194.7542  184.5078  159.6288 C   0  0  0  0  0  0  0  0  0  0  0  0
  196.3559  181.3928  152.0964 C   0  0  0  0  0  0  0  0  0  0  0  0
  196.3496  180.9014  150.8453 N   0  0  0  0  0  0  0  0  0  0  0  0
  197.0727  179.7938  150.5802 C   0  0  0  0  0  0  0  0  0  0  0  0
  197.8537  179.1295  151.5689 C   0  0  0  0  0  0  0  0  0  0  0  0
  198.5649  177.9518  151.2259 C   0  0  0  0  0  0  0  0  0  0  0  0
  198.5260  177.4489  149.9196 C   0  0  0  0  0  0  0  0  0  0  0  0
  197.7611  178.1001  148.9390 C   0  0  0  0  0  0  0  0  0  0  0  0
  197.0385  179.2589  149.2768 C   0  0  0  0  0  0  0  0  0  0  0  0
  194.8806  182.3817  156.9474 H   0  0  0  0  0  0  0  0  0  0  0  0
  201.9431  175.2939  157.4187 H   0  0  0  0  0  0  0  0  0  0  0  0
  201.6469  176.8428  153.4336 H   0  0  0  0  0  0  0  0  0  0  0  0
  199.4716  178.7421  156.6605 H   0  0  0  0  0  0  0  0  0  0  0  0
  198.0938  178.5730  154.6585 H   0  0  0  0  0  0  0  0  0  0  0  0
  197.6393  181.5284  157.5768 H   0  0  0  0  0  0  0  0  0  0  0  0
  197.1802  183.1769  157.0199 H   0  0  0  0  0  0  0  0  0  0  0  0
  194.2637  181.9540  159.1635 H   0  0  0  0  0  0  0  0  0  0  0  0
  195.8715  181.3789  159.5385 H   0  0  0  0  0  0  0  0  0  0  0  0
  197.8677  183.1111  159.3385 H   0  0  0  0  0  0  0  0  0  0  0  0
  198.5350  185.4381  159.7571 H   0  0  0  0  0  0  0  0  0  0  0  0
  196.8130  187.1810  160.2263 H   0  0  0  0  0  0  0  0  0  0  0  0
  194.3912  186.5731  160.1411 H   0  0  0  0  0  0  0  0  0  0  0  0
  193.6974  184.2711  159.5403 H   0  0  0  0  0  0  0  0  0  0  0  0
  195.7473  182.2698  152.2733 H   0  0  0  0  0  0  0  0  0  0  0  0
  199.1516  177.4104  151.9525 H   0  0  0  0  0  0  0  0  0  0  0  0
  199.0885  176.5585  149.6769 H   0  0  0  0  0  0  0  0  0  0  0  0
  197.7310  177.7075  147.9338 H   0  0  0  0  0  0  0  0  0  0  0  0
  196.4411  179.7532  148.5314 H   0  0  0  0  0  0  0  0  0  0  0  0
  195.3581  180.8602  157.3614 H   0  0  0  0  0  0  0  0  0  0  0  0
  1  2  1  0
  2  3  1  0
  2  8  2  0
  3  4  2  0
  3 34  1  0
  4  5  1  0
  4  6  1  0
  6  7  2  0
  6 35  1  0
  7  8  1  0
  7  9  1  0
  8 36  1  0
  9 10  2  0
  9 11  1  0
 11 12  1  0
 11 37  1  0
 12 13  2  0
 12 28  1  0
 13 14  1  0
 13 25  1  0
 14 15  3  0
 15 16  1  0
 16 17  1  0
 16 38  1  1
 16 39  1  0
 17 18  1  0
 17 33  1  6
 17 52  1  0
 18 19  1  0
 18 40  1  6
 18 41  1  0
 19 20  2  0
 19 24  1  0
 20 21  1  0
 20 42  1  0
 21 22  2  0
 21 43  1  0
 22 23  1  0
 22 44  1  0
 23 24  2  0
 23 45  1  0
 24 46  1  0
 25 26  2  0
 25 47  1  0
 26 27  1  0
 27 28  1  0
 27 32  2  0
 28 29  2  0
 29 30  1  0
 29 48  1  0
 30 31  2  0
 30 49  1  0
 31 32  1  0
 31 50  1  0
 32 51  1  0
M  CHG  1  17   1
M  END
>  <s_epik_cmdline>  (34) 
J2VwaWtfcHl0aG9uJywgJy1waCcsICc3LjAwMDAwMCcsICctcGh0JywgJzIuMDAwMDAwJywgJy1tcycsICcxNicsICctdG4nLCAnOCcsICctbWEnLCAnMjAwJywgJy1pbWFlJywgJzxpbmZpbGUubWFlPicsICctb21hZScsICc8b3V0ZmlsZS5tYWU+Jw==

>  <s_epik_input>  (34) 
RmMxW2NIXWMoRilbY0hdYyhbY0hdMSlDKD1PKVtOSF1jKGMoYzIzKVtjSF1bY0hdW2NIXVtjSF0zKWMoW2NIXW4yKUMjQ1tDSDJdW05IXVtDSDJdYzRbY0hdW2NIXVtjSF1bY0hdW2NIXTQ=

>  <s_i_glide_gridfile>  (34) 
ATP-Grid

>  <s_lp_Force_Field>  (34) 
OPLS_2005

>  <s_lp_Variant>  (34) 
rxn503b____EMOL495084____EMOL13728749____EMOL1197208-2

>  <s_lp_label>  (34) 
2568_sdstereoexpander_1_neutralizer_1_epik_2_stereoizer_1

>  <s_m_source_file>  (34) 
ATP-VSW-LIGPREP-002-in.maegz

>  <s_sd_BIOSOLVEIT.INFINISEE\_QUERY\_NAME>  (34) 
Ref-Lig

>  <s_sd_BIOSOLVEIT.INFINISEE\_QUERY\_SMILES>  (34) 
S(c1nc2c(cc1C[NH2+]Cc3ccc(cc3)C[NH+](C)C)cccc2)Cc4ccccc4

>  <s_sd_BIOSOLVEIT.INFINISEE\_REACTION\_NAME>  (34) 
rxn503b

>  <s_sd_BIOSOLVEIT.INFINISEE\_REAGENT1\_NAME>  (34) 
EMOL495084

>  <s_sd_BIOSOLVEIT.INFINISEE\_REAGENT1\_SMILES>  (34) 
Fc1cc(F)cc(c1)C(=O)O

>  <s_sd_BIOSOLVEIT.INFINISEE\_REAGENT2\_NAME>  (34) 
EMOL13728749

>  <s_sd_BIOSOLVEIT.INFINISEE\_REAGENT2\_SMILES>  (34) 
Brc1c(N)c2c(nc1)cccc2

>  <s_sd_BIOSOLVEIT.INFINISEE\_REAGENT3\_NAME>  (34) 
EMOL1197208

>  <s_sd_BIOSOLVEIT.INFINISEE\_REAGENT3\_SMILES>  (34) 
N(CC#C)Cc1ccccc1

>  <s_sd_BIOSOLVEIT.INFINISEE\_SPACE>  (34) 
eXplore_7tr_2022-12

>  <s_vsw_compound_code>  (34) 
82146

>  <s_vsw_variant>  (34) 
82146-2

>  <r_epik_Charging_Adjusted_Penalty>  (34) 
1.1385280302167899

>  <r_epik_Ionization_Penalty>  (34) 
0.5696

>  <r_epik_Ionization_Penalty_Charging>  (34) 
0.56859999999999999

>  <r_epik_Ionization_Penalty_Neutral>  (34) 
0.001

>  <r_epik_State_Penalty>  (34) 
0.56989999999999996

>  <r_i_docking_score>  (34) 
-6.2034938001133799

>  <r_i_glide_ecoul>  (34) 
-10.9487771987915

>  <r_i_glide_eff_state_penalty>  (34) 
0.56989999999999996

>  <r_i_glide_einternal>  (34) 
5.8570790290832502

>  <r_i_glide_emodel>  (34) 
-81.367839183408606

>  <r_i_glide_energy>  (34) 
-52.575402259826703

>  <r_i_glide_erotb>  (34) 
0.75745006455500097

>  <r_i_glide_esite>  (34) 
-0.16689590415101699

>  <r_i_glide_evdw>  (34) 
-41.626625061035199

>  <r_i_glide_gscore>  (34) 
-6.7733938001133804

>  <r_i_glide_hbond>  (34) 
-0.40000000000000002

>  <r_i_glide_ligand_efficiency>  (34) 
-0.19385918125354301

>  <r_i_glide_ligand_efficiency_ln>  (34) 
-1.3891313626997499

>  <r_i_glide_ligand_efficiency_sa>  (34) 
-0.61546453580012395

>  <r_i_glide_lipo>  (34) 
-2.36521375613184

>  <r_i_glide_metal>  (34) 
-0

>  <r_i_glide_rewards>  (34) 
-0.87508637151504098

>  <r_lp_Energy>  (34) 
25.034099999999999

>  <r_qp_ACxDN^.5/SA>  (34) 
0.010457599999999999

>  <r_qp_CIQPlogS>  (34) 
-6.0960000000000001

>  <r_qp_EA(eV)>  (34) 
1.2949999999999999

>  <r_qp_FISA>  (34) 
58.572000000000003

>  <r_qp_FOSA>  (34) 
87.986999999999995

>  <r_qp_IP(eV)>  (34) 
8.9860000000000007

>  <r_qp_Jm>  (34) 
0.044078122977231099

>  <r_qp_PISA>  (34) 
457.63200000000001

>  <r_qp_PSA>  (34) 
58.985999999999997

>  <r_qp_PercentHumanOralAbsorption>  (34) 
100

>  <r_qp_QPPCaco>  (34) 
687.63400000000001

>  <r_qp_QPPMDCK>  (34) 
905.08299999999997

>  <r_qp_QPlogBB>  (34) 
0.161

>  <r_qp_QPlogHERG>  (34) 
-7.0640000000000001

>  <r_qp_QPlogKhsa>  (34) 
0.748

>  <r_qp_QPlogKp>  (34) 
-2.3769999999999998

>  <r_qp_QPlogPC16>  (34) 
13.611000000000001

>  <r_qp_QPlogPo/w>  (34) 
4.8739999999999997

>  <r_qp_QPlogPoct>  (34) 
20.882999999999999

>  <r_qp_QPlogPw>  (34) 
11.193

>  <r_qp_QPlogS>  (34) 
-4.609

>  <r_qp_QPpolrz>  (34) 
44.465000000000003

>  <r_qp_SASA>  (34) 
676.16300000000001

>  <r_qp_SAamideO>  (34) 
0

>  <r_qp_SAfluorine>  (34) 
71.971000000000004

>  <r_qp_WPSA>  (34) 
71.971000000000004

>  <r_qp_accptHB>  (34) 
5

>  <r_qp_dip^2/V>  (34) 
0.0135278

>  <r_qp_dipole>  (34) 
4.1420000000000003

>  <r_qp_donorHB>  (34) 
2

>  <r_qp_glob>  (34) 
0.83787650000000002

>  <r_qp_mol_MW>  (34) 
427.452

>  <r_qp_volume>  (34) 
1267.941

>  <r_sd_BIOSOLVEIT.INFINISEE\_FTREES\_SIMILARITY>  (34) 
0.91200000000000003

>  <r_sd_BIOSOLVEIT.LOGP>  (34) 
3.8803999999999998

>  <r_sd_BIOSOLVEIT.MOLECULAR\_WEIGHT>  (34) 
428.45999999999998

>  <r_sd_BIOSOLVEIT.TPSA>  (34) 
58.600000000000001

>  <i_epik_Tot_Q>  (34) 
1

>  <i_epik_Tot_abs_Q>  (34) 
1

>  <i_f3d_flags>  (34) 
0

>  <i_i_glide_confnum>  (34) 
10

>  <i_i_glide_lignum>  (34) 
1143

>  <i_i_glide_posenum>  (34) 
3

>  <i_i_glide_rotatable_bonds>  (34) 
8

>  <i_lp_mmshare_version>  (34) 
65135

>  <i_m_ct_format>  (34) 
2

>  <i_m_source_file_index>  (34) 
2568

>  <i_qp_#NandO>  (34) 
4

>  <i_qp_#acid>  (34) 
0

>  <i_qp_#amide>  (34) 
0

>  <i_qp_#amidine>  (34) 
0

>  <i_qp_#amine>  (34) 
1

>  <i_qp_#in34>  (34) 
0

>  <i_qp_#in56>  (34) 
22

>  <i_qp_#metab>  (34) 
4

>  <i_qp_#nonHatm>  (34) 
32

>  <i_qp_#noncon>  (34) 
0

>  <i_qp_#ringatoms>  (34) 
22

>  <i_qp_#rotor>  (34) 
7

>  <i_qp_#rtvFG>  (34) 
0

>  <i_qp_#stars>  (34) 
1

>  <i_qp_CNS>  (34) 
1

>  <i_qp_HumanOralAbsorption>  (34) 
3

>  <i_qp_RuleOfFive>  (34) 
0

>  <i_qp_RuleOfThree>  (34) 
0

>  <i_sd_BIOSOLVEIT.INFINISEE\_RESULT\_RANK>  (34) 
37658

>  <i_sd_version>  (34) 
0

>  <b_lp_Chiralities_Consistent>  (34) 
1

>  <b_sd_chiral_flag>  (34) 
0

>  <acquisition_id>  (34) 
ATP-ACQ-0034

>  <canonical_id>  (34) 
ATP-HTVS-D1462A8BE621

>  <compound_code>  (34) 
82146

>  <title>  (34) 
rxn503b____EMOL495084____EMOL13728749____EMOL1197208

>  <variant>  (34) 
82146-2

>  <selection_arm>  (34) 
exploitation

>  <priority>  (34) 
P1

>  <wave>  (34) 
2

>  <source_file>  (34) 
运行/运行/ATP-VSW/ATP-VSW-DOCK_HTVS_1-002_lib.maegz

>  <canonical_smiles>  (34) 
O=C(Nc1c(C#CC[NH2+]Cc2ccccc2)cnc2ccccc12)c1cc(F)cc(F)c1

$$$$
ATP-ACQ-0035
     RDKit          3D

 48 51  0  0  0  0  0  0  0  0999 V2000
  196.0830  187.5049  160.6092 Cl  0  0  0  0  0  0  0  0  0  0  0  0
  196.3598  186.1990  159.5193 C   0  0  0  0  0  0  0  0  0  0  0  0
  195.9639  184.8920  159.8601 C   0  0  0  0  0  0  0  0  0  0  0  0
  196.1947  183.8192  158.9636 C   0  0  0  0  0  0  0  0  0  0  0  0
  195.7956  182.5293  159.3490 N   0  0  0  0  0  0  0  0  0  0  0  0
  194.7073  181.8648  158.6511 C   0  0  2  0  0  0  0  0  0  0  0  0
  196.8542  184.0623  157.7202 C   0  0  0  0  0  0  0  0  0  0  0  0
  197.1040  183.0011  156.8389 N   0  0  0  0  0  0  0  0  0  0  0  0
  197.2667  182.9982  155.4343 C   0  0  0  0  0  0  0  0  0  0  0  0
  197.5830  181.7995  154.7444 C   0  0  0  0  0  0  0  0  0  0  0  0
  197.7779  181.8389  153.3342 C   0  0  0  0  0  0  0  0  0  0  0  0
  197.6252  183.0774  152.6570 C   0  0  0  0  0  0  0  0  0  0  0  0
  197.2789  184.2032  153.3147 N   0  0  0  0  0  0  0  0  0  0  0  0
  197.0921  184.1605  154.6466 C   0  0  0  0  0  0  0  0  0  0  0  0
  197.8874  183.1113  151.2652 N   0  0  0  0  0  0  0  0  0  0  0  0
  197.1273  183.6893  150.3193 C   0  0  0  0  0  0  0  0  0  0  0  0
  196.0368  184.2264  150.5224 O   0  0  0  0  0  0  0  0  0  0  0  0
  197.7276  183.6576  148.9441 C   0  0  0  0  0  0  0  0  0  0  0  0
  197.4127  184.6680  148.0078 C   0  0  0  0  0  0  0  0  0  0  0  0
  197.9682  184.6419  146.7137 C   0  0  0  0  0  0  0  0  0  0  0  0
  198.8409  183.6022  146.3413 C   0  0  0  0  0  0  0  0  0  0  0  0
  199.1488  182.5828  147.2597 C   0  0  0  0  0  0  0  0  0  0  0  0
  198.5920  182.6057  148.5518 C   0  0  0  0  0  0  0  0  0  0  0  0
  198.1042  180.6479  152.6354 C   0  0  0  0  0  0  0  0  0  0  0  0
  198.2263  179.4319  153.3293 C   0  0  0  0  0  0  0  0  0  0  0  0
  198.0256  179.3843  154.7203 C   0  0  0  0  0  0  0  0  0  0  0  0
  197.7100  180.5603  155.4249 C   0  0  0  0  0  0  0  0  0  0  0  0
  197.2929  185.3700  157.4181 C   0  0  0  0  0  0  0  0  0  0  0  0
  197.0185  186.4352  158.2960 C   0  0  0  0  0  0  0  0  0  0  0  0
  195.5098  184.6978  160.8195 H   0  0  0  0  0  0  0  0  0  0  0  0
  196.4412  181.9441  159.8633 H   0  0  0  0  0  0  0  0  0  0  0  0
  194.6220  180.8348  158.9981 H   0  0  0  0  0  0  0  0  0  0  0  0
  194.8610  181.8378  157.5703 H   0  0  0  0  0  0  0  0  0  0  0  0
  193.7577  182.3646  158.8496 H   0  0  0  0  0  0  0  0  0  0  0  0
  196.9459  182.0996  157.2652 H   0  0  0  0  0  0  0  0  0  0  0  0
  196.7729  185.0959  155.0726 H   0  0  0  0  0  0  0  0  0  0  0  0
  198.7217  182.6378  150.9574 H   0  0  0  0  0  0  0  0  0  0  0  0
  196.7460  185.4734  148.2793 H   0  0  0  0  0  0  0  0  0  0  0  0
  197.7262  185.4241  146.0111 H   0  0  0  0  0  0  0  0  0  0  0  0
  199.2715  183.5834  145.3516 H   0  0  0  0  0  0  0  0  0  0  0  0
  199.8127  181.7811  146.9736 H   0  0  0  0  0  0  0  0  0  0  0  0
  198.8386  181.7995  149.2292 H   0  0  0  0  0  0  0  0  0  0  0  0
  198.2524  180.6454  151.5651 H   0  0  0  0  0  0  0  0  0  0  0  0
  198.4634  178.5273  152.7793 H   0  0  0  0  0  0  0  0  0  0  0  0
  198.0994  178.4433  155.2489 H   0  0  0  0  0  0  0  0  0  0  0  0
  197.5445  180.4672  156.4872 H   0  0  0  0  0  0  0  0  0  0  0  0
  197.8392  185.5678  156.5093 H   0  0  0  0  0  0  0  0  0  0  0  0
  197.3262  187.4365  158.0354 H   0  0  0  0  0  0  0  0  0  0  0  0
  1  2  1  0
  2  3  2  0
  2 29  1  0
  3  4  1  0
  3 30  1  0
  4  5  1  0
  4  7  2  0
  5  6  1  0
  5 31  1  0
  6 32  1  1
  6 33  1  0
  6 34  1  0
  7  8  1  0
  7 28  1  0
  8  9  1  0
  8 35  1  0
  9 10  2  0
  9 14  1  0
 10 11  1  0
 10 27  1  0
 11 12  2  0
 11 24  1  0
 12 13  1  0
 12 15  1  0
 13 14  2  0
 14 36  1  0
 15 16  1  0
 15 37  1  0
 16 17  2  0
 16 18  1  0
 18 19  2  0
 18 23  1  0
 19 20  1  0
 19 38  1  0
 20 21  2  0
 20 39  1  0
 21 22  1  0
 21 40  1  0
 22 23  2  0
 22 41  1  0
 23 42  1  0
 24 25  2  0
 24 43  1  0
 25 26  1  0
 25 44  1  0
 26 27  2  0
 26 45  1  0
 27 46  1  0
 28 29  2  0
 28 47  1  0
 29 48  1  0
M  END
>  <s_epik_cmdline>  (35) 
J2VwaWtfcHl0aG9uJywgJy1waCcsICc3LjAwMDAwMCcsICctcGh0JywgJzIuMDAwMDAwJywgJy1tcycsICcxNicsICctdG4nLCAnOCcsICctbWEnLCAnMjAwJywgJy1pbWFlJywgJzxpbmZpbGUubWFlPicsICctb21hZScsICc8b3V0ZmlsZS5tYWU+Jw==

>  <s_epik_input>  (35) 
Q2xjMVtjSF1jKFtOSF1bQ0gzXSljKFtjSF1bY0hdMSlbTkhdYzJbY0hdbmMoYyhjMjMpW2NIXVtjSF1bY0hdW2NIXTMpW05IXUMoPU8pYzRbY0hdW2NIXVtjSF1bY0hdW2NIXTQ=

>  <s_i_glide_gridfile>  (35) 
ATP-Grid

>  <s_lp_Force_Field>  (35) 
OPLS_2005

>  <s_lp_Variant>  (35) 
rxn502b____EMOL480353____EMOL7515103____EMOL48601815-1

>  <s_lp_label>  (35) 
2670_sdstereoexpander_1_neutralizer_1_epik_1_stereoizer_1

>  <s_m_source_file>  (35) 
ATP-VSW-LIGPREP-003-in.maegz

>  <s_sd_BIOSOLVEIT.INFINISEE\_QUERY\_NAME>  (35) 
Ref-Lig

>  <s_sd_BIOSOLVEIT.INFINISEE\_QUERY\_SMILES>  (35) 
S(c1nc2c(cc1C[NH2+]Cc3ccc(cc3)C[NH+](C)C)cccc2)Cc4ccccc4

>  <s_sd_BIOSOLVEIT.INFINISEE\_REACTION\_NAME>  (35) 
rxn502b

>  <s_sd_BIOSOLVEIT.INFINISEE\_REAGENT1\_NAME>  (35) 
EMOL480353

>  <s_sd_BIOSOLVEIT.INFINISEE\_REAGENT1\_SMILES>  (35) 
ClC(=O)c1ccccc1

>  <s_sd_BIOSOLVEIT.INFINISEE\_REAGENT2\_NAME>  (35) 
EMOL7515103

>  <s_sd_BIOSOLVEIT.INFINISEE\_REAGENT2\_SMILES>  (35) 
Brc1c2c(c(nc1)N)cccc2

>  <s_sd_BIOSOLVEIT.INFINISEE\_REAGENT3\_NAME>  (35) 
EMOL48601815

>  <s_sd_BIOSOLVEIT.INFINISEE\_REAGENT3\_SMILES>  (35) 
Clc1cc(NC)c(N)cc1

>  <s_sd_BIOSOLVEIT.INFINISEE\_SPACE>  (35) 
eXplore_7tr_2022-12

>  <s_vsw_compound_code>  (35) 
85411

>  <s_vsw_variant>  (35) 
85411-1

>  <r_epik_Charging_Adjusted_Penalty>  (35) 
0.043492109800604403

>  <r_epik_Ionization_Penalty>  (35) 
0.0436

>  <r_epik_Ionization_Penalty_Charging>  (35) 
0

>  <r_epik_Ionization_Penalty_Neutral>  (35) 
0.0436

>  <r_epik_State_Penalty>  (35) 
0.043499999999999997

>  <r_i_docking_score>  (35) 
-4.7551000833216399

>  <r_i_glide_ecoul>  (35) 
-4.2794280052185103

>  <r_i_glide_eff_state_penalty>  (35) 
0.043499999999999997

>  <r_i_glide_einternal>  (35) 
11.7557315826416

>  <r_i_glide_emodel>  (35) 
-49.033067735721303

>  <r_i_glide_energy>  (35) 
-42.078004360199003

>  <r_i_glide_erotb>  (35) 
0.60464999666974695

>  <r_i_glide_esite>  (35) 
-0.070089282650488097

>  <r_i_glide_evdw>  (35) 
-37.798576354980497

>  <r_i_glide_gscore>  (35) 
-4.7986000833216398

>  <r_i_glide_hbond>  (35) 
-0.29157647170773299

>  <r_i_glide_ligand_efficiency>  (35) 
-0.16396896839040101

>  <r_i_glide_ligand_efficiency_ln>  (35) 
-1.08879734014638

>  <r_i_glide_ligand_efficiency_sa>  (35) 
-0.50376461991073995

>  <r_i_glide_lipo>  (35) 
-1.68026774515674

>  <r_i_glide_metal>  (35) 
-0

>  <r_i_glide_rewards>  (35) 
-0.82947356194462796

>  <r_lp_Energy>  (35) 
34.841558999999997

>  <r_qp_ACxDN^.5/SA>  (35) 
0.011923700000000001

>  <r_qp_CIQPlogS>  (35) 
-6.5369999999999999

>  <r_qp_EA(eV)>  (35) 
1.1120000000000001

>  <r_qp_FISA>  (35) 
85.593000000000004

>  <r_qp_FOSA>  (35) 
89.189999999999998

>  <r_qp_IP(eV)>  (35) 
7.5789999999999997

>  <r_qp_Jm>  (35) 
0.0067852100672149401

>  <r_qp_PISA>  (35) 
479.995

>  <r_qp_PSA>  (35) 
67.034999999999997

>  <r_qp_PercentHumanOralAbsorption>  (35) 
100

>  <r_qp_QPPCaco>  (35) 
1528.345

>  <r_qp_QPPMDCK>  (35) 
1928.8589999999999

>  <r_qp_QPlogBB>  (35) 
-0.50700000000000001

>  <r_qp_QPlogHERG>  (35) 
-7.4269999999999996

>  <r_qp_QPlogKhsa>  (35) 
0.69199999999999995

>  <r_qp_QPlogKp>  (35) 
-0.92600000000000005

>  <r_qp_QPlogPC16>  (35) 
15.212999999999999

>  <r_qp_QPlogPo/w>  (35) 
4.9589999999999996

>  <r_qp_QPlogPoct>  (35) 
23.777999999999999

>  <r_qp_QPlogPw>  (35) 
13.555

>  <r_qp_QPlogS>  (35) 
-6.8479999999999999

>  <r_qp_QPpolrz>  (35) 
45.683999999999997

>  <r_qp_SASA>  (35) 
726.30499999999995

>  <r_qp_SAamideO>  (35) 
0

>  <r_qp_SAfluorine>  (35) 
0

>  <r_qp_WPSA>  (35) 
71.528000000000006

>  <r_qp_accptHB>  (35) 
5

>  <r_qp_dip^2/V>  (35) 
0.089559100000000003

>  <r_qp_dipole>  (35) 
10.627000000000001

>  <r_qp_donorHB>  (35) 
3

>  <r_qp_glob>  (35) 
0.77717729999999996

>  <r_qp_mol_MW>  (35) 
402.88200000000001

>  <r_qp_volume>  (35) 
1260.9880000000001

>  <r_sd_BIOSOLVEIT.INFINISEE\_FTREES\_SIMILARITY>  (35) 
0.90900000000000003

>  <r_sd_BIOSOLVEIT.LOGP>  (35) 
5.9257999999999997

>  <r_sd_BIOSOLVEIT.MOLECULAR\_WEIGHT>  (35) 
402.88299999999998

>  <r_sd_BIOSOLVEIT.TPSA>  (35) 
66.049999999999997

>  <i_epik_Tot_Q>  (35) 
0

>  <i_epik_Tot_abs_Q>  (35) 
0

>  <i_f3d_flags>  (35) 
0

>  <i_i_glide_confnum>  (35) 
4

>  <i_i_glide_lignum>  (35) 
1256

>  <i_i_glide_posenum>  (35) 
6

>  <i_i_glide_rotatable_bonds>  (35) 
6

>  <i_lp_mmshare_version>  (35) 
65135

>  <i_m_ct_format>  (35) 
2

>  <i_m_source_file_index>  (35) 
2670

>  <i_qp_#NandO>  (35) 
5

>  <i_qp_#acid>  (35) 
0

>  <i_qp_#amide>  (35) 
0

>  <i_qp_#amidine>  (35) 
0

>  <i_qp_#amine>  (35) 
0

>  <i_qp_#in34>  (35) 
0

>  <i_qp_#in56>  (35) 
22

>  <i_qp_#metab>  (35) 
6

>  <i_qp_#nonHatm>  (35) 
29

>  <i_qp_#noncon>  (35) 
0

>  <i_qp_#ringatoms>  (35) 
22

>  <i_qp_#rotor>  (35) 
5

>  <i_qp_#rtvFG>  (35) 
0

>  <i_qp_#stars>  (35) 
3

>  <i_qp_CNS>  (35) 
-1

>  <i_qp_HumanOralAbsorption>  (35) 
1

>  <i_qp_RuleOfFive>  (35) 
0

>  <i_qp_RuleOfThree>  (35) 
1

>  <i_sd_BIOSOLVEIT.INFINISEE\_RESULT\_RANK>  (35) 
48901

>  <i_sd_version>  (35) 
0

>  <b_lp_Chiralities_Consistent>  (35) 
1

>  <b_sd_chiral_flag>  (35) 
0

>  <acquisition_id>  (35) 
ATP-ACQ-0035

>  <canonical_id>  (35) 
ATP-HTVS-FF081A1D735D

>  <compound_code>  (35) 
85411

>  <title>  (35) 
rxn502b____EMOL480353____EMOL7515103____EMOL48601815

>  <variant>  (35) 
85411-1

>  <selection_arm>  (35) 
descriptor_diversity

>  <priority>  (35) 
P1

>  <wave>  (35) 
2

>  <source_file>  (35) 
运行/运行/ATP-VSW/ATP-VSW-DOCK_HTVS_1-003_lib/ATP-VSW-DOCK_HTVS_1-003_lib.mae

>  <canonical_smiles>  (35) 
CNc1cc(Cl)ccc1Nc1cnc(NC(=O)c2ccccc2)c2ccccc12

$$$$
ATP-ACQ-0036
     RDKit          3D

 61 64  0  0  0  0  0  0  0  0999 V2000
  200.9278  188.6928  156.2156 F   0  0  0  0  0  0  0  0  0  0  0  0
  199.8844  188.5327  157.0630 C   0  0  0  0  0  0  0  0  0  0  0  0
  198.6374  188.1107  156.5683 C   0  0  0  0  0  0  0  0  0  0  0  0
  197.5491  187.9300  157.4412 C   0  0  0  0  0  0  0  0  0  0  0  0
  196.3488  187.4507  156.9145 N   0  0  0  0  0  0  0  0  0  0  0  0
  197.7088  188.1945  158.8281 C   0  0  0  0  0  0  0  0  0  0  0  0
  198.9674  188.6142  159.3171 C   0  0  0  0  0  0  0  0  0  0  0  0
  200.0526  188.7806  158.4369 C   0  0  0  0  0  0  0  0  0  0  0  0
  196.5858  187.9609  159.8428 C   0  0  1  0  0  0  0  0  0  0  0  0
  195.9276  186.6540  159.8300 N   0  0  0  0  0  0  0  0  0  0  0  0
  196.6254  185.4555  159.6019 C   0  0  0  0  0  0  0  0  0  0  0  0
  197.9675  185.4404  159.7498 N   0  0  0  0  0  0  0  0  0  0  0  0
  198.6589  184.3559  159.4149 C   0  0  0  0  0  0  0  0  0  0  0  0
  198.0715  183.2254  159.0331 N   0  0  0  0  0  0  0  0  0  0  0  0
  196.7375  183.1693  158.8841 C   0  0  0  0  0  0  0  0  0  0  0  0
  195.9452  184.2993  159.1720 C   0  0  0  0  0  0  0  0  0  0  0  0
  194.5429  184.2044  158.9899 C   0  0  0  0  0  0  0  0  0  0  0  0
  193.9630  183.0000  158.5378 C   0  0  0  0  0  0  0  0  0  0  0  0
  194.7784  181.8856  158.2500 C   0  0  0  0  0  0  0  0  0  0  0  0
  196.1699  181.9792  158.4161 C   0  0  0  0  0  0  0  0  0  0  0  0
  200.0380  184.4481  159.3995 N   0  0  0  0  0  0  0  0  0  0  0  0
  200.9628  183.4559  158.8305 C   0  0  1  0  0  0  0  0  0  0  0  0
  200.5302  182.7594  157.5384 C   0  0  0  0  0  0  0  0  0  0  0  0
  200.8916  181.4129  157.3083 C   0  0  0  0  0  0  0  0  0  0  0  0
  200.3915  180.7259  156.1860 C   0  0  0  0  0  0  0  0  0  0  0  0
  199.5206  181.3796  155.2883 C   0  0  0  0  0  0  0  0  0  0  0  0
  199.1687  182.7240  155.5089 C   0  0  0  0  0  0  0  0  0  0  0  0
  199.7049  183.4225  156.5991 C   0  0  0  0  0  0  0  0  0  0  0  0
  198.9583  180.6527  154.0852 C   0  0  1  0  0  0  0  0  0  0  0  0
  197.5447  180.2300  154.2537 N   0  0  2  0  0  0  0  0  0  0  0  0
  197.3337  179.3154  155.4005 C   0  0  2  0  0  0  0  0  0  0  0  0
  197.0001  179.6752  152.9938 C   0  0  2  0  0  0  0  0  0  0  0  0
  198.5283  187.8922  155.5159 H   0  0  0  0  0  0  0  0  0  0  0  0
  195.6444  187.1160  157.5571 H   0  0  0  0  0  0  0  0  0  0  0  0
  196.3051  187.0644  155.9793 H   0  0  0  0  0  0  0  0  0  0  0  0
  199.1140  188.7770  160.3775 H   0  0  0  0  0  0  0  0  0  0  0  0
  201.0170  189.0801  158.8184 H   0  0  0  0  0  0  0  0  0  0  0  0
  196.9554  188.1438  160.8559 H   0  0  0  0  0  0  0  0  0  0  0  0
  195.8271  188.7237  159.6617 H   0  0  0  0  0  0  0  0  0  0  0  0
  194.9283  186.6389  159.6937 H   0  0  0  0  0  0  0  0  0  0  0  0
  193.8925  185.0376  159.2033 H   0  0  0  0  0  0  0  0  0  0  0  0
  192.8919  182.9071  158.4293 H   0  0  0  0  0  0  0  0  0  0  0  0
  194.3387  180.9538  157.9171 H   0  0  0  0  0  0  0  0  0  0  0  0
  196.7761  181.1169  158.1777 H   0  0  0  0  0  0  0  0  0  0  0  0
  200.4297  185.3401  159.6665 H   0  0  0  0  0  0  0  0  0  0  0  0
  201.9317  183.9309  158.6568 H   0  0  0  0  0  0  0  0  0  0  0  0
  201.1296  182.7029  159.6029 H   0  0  0  0  0  0  0  0  0  0  0  0
  201.5065  180.8765  158.0243 H   0  0  0  0  0  0  0  0  0  0  0  0
  200.6494  179.6899  156.0354 H   0  0  0  0  0  0  0  0  0  0  0  0
  198.4512  183.2240  154.8699 H   0  0  0  0  0  0  0  0  0  0  0  0
  199.3986  184.4469  156.7411 H   0  0  0  0  0  0  0  0  0  0  0  0
  199.0343  181.3333  153.2358 H   0  0  0  0  0  0  0  0  0  0  0  0
  199.5880  179.7937  153.8587 H   0  0  0  0  0  0  0  0  0  0  0  0
  197.9279  178.4057  155.3022 H   0  0  0  0  0  0  0  0  0  0  0  0
  196.2840  179.0354  155.4751 H   0  0  0  0  0  0  0  0  0  0  0  0
  197.5987  179.7910  156.3445 H   0  0  0  0  0  0  0  0  0  0  0  0
  197.5320  178.7673  152.7061 H   0  0  0  0  0  0  0  0  0  0  0  0
  197.0901  180.3931  152.1776 H   0  0  0  0  0  0  0  0  0  0  0  0
  195.9447  179.4314  153.0986 H   0  0  0  0  0  0  0  0  0  0  0  0
  198.6241  182.4098  158.7687 H   0  0  0  0  0  0  0  0  0  0  0  0
  197.0120  181.0658  154.4593 H   0  0  0  0  0  0  0  0  0  0  0  0
  1  2  1  0
  2  3  2  0
  2  8  1  0
  3  4  1  0
  3 33  1  0
  4  5  1  0
  4  6  2  0
  5 34  1  0
  5 35  1  0
  6  7  1  0
  6  9  1  0
  7  8  2  0
  7 36  1  0
  8 37  1  0
  9 10  1  0
  9 38  1  1
  9 39  1  0
 10 11  1  0
 10 40  1  0
 11 12  2  0
 11 16  1  0
 12 13  1  0
 13 14  2  0
 13 21  1  0
 14 15  1  0
 14 60  1  0
 15 16  1  0
 15 20  2  0
 16 17  2  0
 17 18  1  0
 17 41  1  0
 18 19  2  0
 18 42  1  0
 19 20  1  0
 19 43  1  0
 20 44  1  0
 21 22  1  0
 21 45  1  0
 22 23  1  0
 22 46  1  6
 22 47  1  0
 23 24  1  0
 23 28  2  0
 24 25  2  0
 24 48  1  0
 25 26  1  0
 25 49  1  0
 26 27  2  0
 26 29  1  0
 27 28  1  0
 27 50  1  0
 28 51  1  0
 29 30  1  0
 29 52  1  6
 29 53  1  0
 30 31  1  0
 30 32  1  0
 30 61  1  1
 31 54  1  6
 31 55  1  0
 31 56  1  0
 32 57  1  6
 32 58  1  0
 32 59  1  0
M  CHG  2  14   1  30   1
M  END
>  <s_epik_cmdline>  (36) 
J2VwaWtfcHl0aG9uJywgJy1waCcsICc3LjAwMDAwMCcsICctcGh0JywgJzIuMDAwMDAwJywgJy1tcycsICcxNicsICctdG4nLCAnOCcsICctbWEnLCAnMjAwJywgJy1pbWFlJywgJzxpbmZpbGUubWFlPicsICctb21hZScsICc8b3V0ZmlsZS5tYWU+Jw==

>  <s_epik_input>  (36) 
RmMxW2NIXWMoW05IMl0pYyhbY0hdW2NIXTEpW0NIMl1bTkhdYyhjKGMyMylbY0hdW2NIXVtjSF1bY0hdMyluYyhuMilbTkhdW0NIMl1jNFtjSF1bY0hdYyhbY0hdW2NIXTQpW0NIMl1OKFtDSDNdKVtDSDNd

>  <s_i_glide_gridfile>  (36) 
ATP-Grid

>  <s_lp_Force_Field>  (36) 
OPLS_2005

>  <s_lp_Variant>  (36) 
m_282030aaa____21929760____22360182____21938720-1

>  <s_lp_label>  (36) 
1183_sdstereoexpander_1_neutralizer_1_epik_1_stereoizer_1

>  <s_m_source_file>  (36) 
ATP-VSW-LIGPREP-001-in.maegz

>  <s_sd_BIOSOLVEIT.INFINISEE\_QUERY\_NAME>  (36) 
Ref-Lig

>  <s_sd_BIOSOLVEIT.INFINISEE\_QUERY\_SMILES>  (36) 
S(c1nc2c(cc1C[NH2+]Cc3ccc(cc3)C[NH+](C)C)cccc2)Cc4ccccc4

>  <s_sd_BIOSOLVEIT.INFINISEE\_REACTION\_NAME>  (36) 
m_282030aaa

>  <s_sd_BIOSOLVEIT.INFINISEE\_REAGENT1\_SMILES>  (36) 
[R1*]NCc1ccc(cc1)CN(C)C

>  <s_sd_BIOSOLVEIT.INFINISEE\_REAGENT2\_SMILES>  (36) 
[R2*]c1nc([R1*])c2c(n1)cccc2

>  <s_sd_BIOSOLVEIT.INFINISEE\_REAGENT3\_SMILES>  (36) 
[R2*]NCc1c(N)cc(F)cc1

>  <s_sd_BIOSOLVEIT.INFINISEE\_SPACE>  (36) 
REALSpace_44bn_2023-08

>  <s_vsw_compound_code>  (36) 
37825

>  <s_vsw_variant>  (36) 
37825-1

>  <r_epik_Charging_Adjusted_Penalty>  (36) 
0.110782188572458

>  <r_epik_Ionization_Penalty>  (36) 
0.056300000000000003

>  <r_epik_Ionization_Penalty_Charging>  (36) 
0.055899999999999998

>  <r_epik_Ionization_Penalty_Neutral>  (36) 
0.00040000000000000002

>  <r_epik_State_Penalty>  (36) 
0.054899999999999997

>  <r_i_docking_score>  (36) 
-4.0745648426609797

>  <r_i_glide_ecoul>  (36) 
-10.1503505706787

>  <r_i_glide_eff_state_penalty>  (36) 
0.054899999999999997

>  <r_i_glide_einternal>  (36) 
1.1688919067382799

>  <r_i_glide_emodel>  (36) 
-58.208831868846602

>  <r_i_glide_energy>  (36) 
-41.646173477172901

>  <r_i_glide_erotb>  (36) 
0.74454719589574203

>  <r_i_glide_esite>  (36) 
-0.028758772282610898

>  <r_i_glide_evdw>  (36) 
-31.495822906494102

>  <r_i_glide_gscore>  (36) 
-4.1294648426609797

>  <r_i_glide_hbond>  (36) 
0

>  <r_i_glide_ligand_efficiency>  (36) 
-0.12733015133315601

>  <r_i_glide_ligand_efficiency_ln>  (36) 
-0.91240613671455395

>  <r_i_glide_ligand_efficiency_sa>  (36) 
-0.404248031880037

>  <r_i_glide_lipo>  (36) 
-1.20074833205068

>  <r_i_glide_metal>  (36) 
-0

>  <r_i_glide_rewards>  (36) 
-0.54716120329692097

>  <r_lp_Energy>  (36) 
22.565263999999999

>  <r_qp_ACxDN^.5/SA>  (36) 
0.0155981

>  <r_qp_CIQPlogS>  (36) 
-5.6219999999999999

>  <r_qp_EA(eV)>  (36) 
0.60299999999999998

>  <r_qp_FISA>  (36) 
73.302000000000007

>  <r_qp_FOSA>  (36) 
230.57599999999999

>  <r_qp_IP(eV)>  (36) 
8.0419999999999998

>  <r_qp_Jm>  (36) 
0.0300335953300656

>  <r_qp_PISA>  (36) 
368.75700000000001

>  <r_qp_PSA>  (36) 
69.084999999999994

>  <r_qp_PercentHumanOralAbsorption>  (36) 
100

>  <r_qp_QPPCaco>  (36) 
498.517

>  <r_qp_QPPMDCK>  (36) 
466.58100000000002

>  <r_qp_QPlogBB>  (36) 
-0.186

>  <r_qp_QPlogHERG>  (36) 
-6.8799999999999999

>  <r_qp_QPlogKhsa>  (36) 
0.59499999999999997

>  <r_qp_QPlogKp>  (36) 
-2.77

>  <r_qp_QPlogPC16>  (36) 
14.398

>  <r_qp_QPlogPo/w>  (36) 
4.4349999999999996

>  <r_qp_QPlogPoct>  (36) 
23.896000000000001

>  <r_qp_QPlogPw>  (36) 
13.525

>  <r_qp_QPlogS>  (36) 
-4.3860000000000001

>  <r_qp_QPpolrz>  (36) 
45.832000000000001

>  <r_qp_SASA>  (36) 
719.63499999999999

>  <r_qp_SAamideO>  (36) 
0

>  <r_qp_SAfluorine>  (36) 
47.000999999999998

>  <r_qp_WPSA>  (36) 
47.000999999999998

>  <r_qp_accptHB>  (36) 
6

>  <r_qp_dip^2/V>  (36) 
0.020966499999999999

>  <r_qp_dipole>  (36) 
5.3310000000000004

>  <r_qp_donorHB>  (36) 
3.5

>  <r_qp_glob>  (36) 
0.82305930000000005

>  <r_qp_mol_MW>  (36) 
430.52699999999999

>  <r_qp_volume>  (36) 
1355.4010000000001

>  <r_sd_BIOSOLVEIT.INFINISEE\_FTREES\_SIMILARITY>  (36) 
0.91200000000000003

>  <r_sd_BIOSOLVEIT.LOGP>  (36) 
3.2198000000000002

>  <r_sd_BIOSOLVEIT.MOLECULAR\_WEIGHT>  (36) 
431.536

>  <r_sd_BIOSOLVEIT.TPSA>  (36) 
80.299999999999997

>  <i_epik_Tot_Q>  (36) 
2

>  <i_epik_Tot_abs_Q>  (36) 
2

>  <i_f3d_flags>  (36) 
0

>  <i_i_glide_confnum>  (36) 
2

>  <i_i_glide_lignum>  (36) 
294

>  <i_i_glide_posenum>  (36) 
20

>  <i_i_glide_rotatable_bonds>  (36) 
8

>  <i_lp_mmshare_version>  (36) 
65135

>  <i_m_ct_format>  (36) 
2

>  <i_m_source_file_index>  (36) 
1183

>  <i_qp_#NandO>  (36) 
6

>  <i_qp_#acid>  (36) 
0

>  <i_qp_#amide>  (36) 
0

>  <i_qp_#amidine>  (36) 
0

>  <i_qp_#amine>  (36) 
1

>  <i_qp_#in34>  (36) 
0

>  <i_qp_#in56>  (36) 
22

>  <i_qp_#metab>  (36) 
6

>  <i_qp_#nonHatm>  (36) 
32

>  <i_qp_#noncon>  (36) 
0

>  <i_qp_#ringatoms>  (36) 
22

>  <i_qp_#rotor>  (36) 
9

>  <i_qp_#rtvFG>  (36) 
0

>  <i_qp_#stars>  (36) 
0

>  <i_qp_CNS>  (36) 
0

>  <i_qp_HumanOralAbsorption>  (36) 
3

>  <i_qp_RuleOfFive>  (36) 
0

>  <i_qp_RuleOfThree>  (36) 
0

>  <i_sd_BIOSOLVEIT.INFINISEE\_REAGENT1\_NAME>  (36) 
21929760

>  <i_sd_BIOSOLVEIT.INFINISEE\_REAGENT2\_NAME>  (36) 
22360182

>  <i_sd_BIOSOLVEIT.INFINISEE\_REAGENT3\_NAME>  (36) 
21938720

>  <i_sd_BIOSOLVEIT.INFINISEE\_RESULT\_RANK>  (36) 
39051

>  <i_sd_version>  (36) 
0

>  <b_lp_Chiralities_Consistent>  (36) 
1

>  <b_sd_chiral_flag>  (36) 
0

>  <acquisition_id>  (36) 
ATP-ACQ-0036

>  <canonical_id>  (36) 
ATP-HTVS-76EB0BEAC1B9

>  <compound_code>  (36) 
37825

>  <title>  (36) 
m_282030aaa____21929760____22360182____21938720

>  <variant>  (36) 
37825-1

>  <selection_arm>  (36) 
score_calibration

>  <priority>  (36) 
P1

>  <wave>  (36) 
2

>  <source_file>  (36) 
运行/运行/ATP-VSW/ATP-VSW-DOCK_HTVS_1-001_lib/ATP-VSW-DOCK_HTVS_1-001_lib

>  <canonical_smiles>  (36) 
C[NH+](C)Cc1ccc(CNc2nc(NCc3ccc(F)cc3N)c3ccccc3[nH+]2)cc1

$$$$
ATP-ACQ-0037
     RDKit          3D

 55 57  0  0  0  0  0  0  0  0999 V2000
  197.0380  184.5115  158.7422 S   0  0  0  0  0  0  0  0  0  0  0  0
  195.6546  185.1529  159.5988 C   0  0  0  0  0  0  0  0  0  0  0  0
  195.7100  186.4915  160.1986 C   0  0  0  0  0  0  0  0  0  0  0  0
  194.7346  186.8880  161.1429 C   0  0  0  0  0  0  0  0  0  0  0  0
  194.7505  188.1768  161.7135 C   0  0  0  0  0  0  0  0  0  0  0  0
  195.7469  189.1142  161.3356 C   0  0  0  0  0  0  0  0  0  0  0  0
  195.7730  190.4678  161.9339 N   0  0  0  0  0  0  0  0  0  0  0  0
  196.7453  191.1871  161.7262 O   0  0  0  0  0  0  0  0  0  0  0  0
  194.8220  190.8030  162.6363 O   0  0  0  0  0  0  0  0  0  0  0  0
  196.7243  188.7226  160.3984 C   0  0  0  0  0  0  0  0  0  0  0  0
  196.6963  187.4355  159.8260 C   0  0  0  0  0  0  0  0  0  0  0  0
  194.6351  184.2337  159.6173 C   0  0  0  0  0  0  0  0  0  0  0  0
  194.9540  183.0085  158.9548 C   0  0  0  0  0  0  0  0  0  0  0  0
  196.2160  183.0061  158.4211 C   0  0  0  0  0  0  0  0  0  0  0  0
  196.9053  181.9136  157.6772 C   0  0  1  0  0  0  0  0  0  0  0  0
  196.1085  181.4413  156.5332 N   0  0  1  0  0  0  0  0  0  0  0  0
  196.8331  180.5492  155.6104 C   0  0  1  0  0  0  0  0  0  0  0  0
  196.9440  181.1698  154.2086 C   0  0  1  0  0  0  0  0  0  0  0  0
  197.6114  180.2380  153.2128 C   0  0  0  0  0  0  0  0  0  0  0  0
  196.9198  179.8155  152.0582 C   0  0  0  0  0  0  0  0  0  0  0  0
  197.5467  178.9559  151.1359 C   0  0  0  0  0  0  0  0  0  0  0  0
  198.8617  178.4996  151.3654 C   0  0  0  0  0  0  0  0  0  0  0  0
  199.5540  178.9269  152.5175 C   0  0  0  0  0  0  0  0  0  0  0  0
  198.9332  179.7938  153.4340 C   0  0  0  0  0  0  0  0  0  0  0  0
  199.5384  177.5693  150.3742 C   0  0  1  0  0  0  0  0  0  0  0  0
  199.6563  176.1815  150.8920 N   0  0  2  0  0  0  0  0  0  0  0  0
  200.6144  175.3732  150.1040 C   0  0  2  0  0  0  0  0  0  0  0  0
  198.3563  175.4907  151.0383 C   0  0  2  0  0  0  0  0  0  0  0  0
  195.3736  180.8686  156.9363 H   0  0  0  0  0  0  0  0  0  0  0  0
  193.9493  186.2095  161.4346 H   0  0  0  0  0  0  0  0  0  0  0  0
  193.9841  188.4492  162.4230 H   0  0  0  0  0  0  0  0  0  0  0  0
  197.4982  189.4198  160.0994 H   0  0  0  0  0  0  0  0  0  0  0  0
  197.4497  187.1971  159.0910 H   0  0  0  0  0  0  0  0  0  0  0  0
  193.6744  184.3809  160.0879 H   0  0  0  0  0  0  0  0  0  0  0  0
  194.2571  182.1810  158.9078 H   0  0  0  0  0  0  0  0  0  0  0  0
  197.8782  182.2681  157.3329 H   0  0  0  0  0  0  0  0  0  0  0  0
  197.0920  181.0704  158.3399 H   0  0  0  0  0  0  0  0  0  0  0  0
  197.8165  180.2895  156.0067 H   0  0  0  0  0  0  0  0  0  0  0  0
  196.2904  179.6065  155.5705 H   0  0  0  0  0  0  0  0  0  0  0  0
  195.9489  181.4453  153.8515 H   0  0  0  0  0  0  0  0  0  0  0  0
  197.5165  182.0969  154.2457 H   0  0  0  0  0  0  0  0  0  0  0  0
  195.9105  180.1542  151.8711 H   0  0  0  0  0  0  0  0  0  0  0  0
  197.0074  178.6478  150.2526 H   0  0  0  0  0  0  0  0  0  0  0  0
  200.5656  178.5977  152.7086 H   0  0  0  0  0  0  0  0  0  0  0  0
  199.4821  180.1167  154.3073 H   0  0  0  0  0  0  0  0  0  0  0  0
  199.0029  177.5715  149.4229 H   0  0  0  0  0  0  0  0  0  0  0  0
  200.5304  177.9775  150.1694 H   0  0  0  0  0  0  0  0  0  0  0  0
  200.2664  175.2439  149.0768 H   0  0  0  0  0  0  0  0  0  0  0  0
  200.7428  174.3815  150.5430 H   0  0  0  0  0  0  0  0  0  0  0  0
  201.5962  175.8504  150.0752 H   0  0  0  0  0  0  0  0  0  0  0  0
  197.8535  175.4084  150.0753 H   0  0  0  0  0  0  0  0  0  0  0  0
  197.7056  176.0224  151.7254 H   0  0  0  0  0  0  0  0  0  0  0  0
  198.4921  174.4915  151.4495 H   0  0  0  0  0  0  0  0  0  0  0  0
  195.6727  182.2140  156.0438 H   0  0  0  0  0  0  0  0  0  0  0  0
  200.0464  176.2637  151.8210 H   0  0  0  0  0  0  0  0  0  0  0  0
  1  2  1  0
  1 14  1  0
  2  3  1  0
  2 12  2  0
  3  4  1  0
  3 11  2  0
  4  5  2  0
  4 30  1  0
  5  6  1  0
  5 31  1  0
  6  7  1  0
  6 10  2  0
  7  8  1  0
  7  9  2  0
 10 11  1  0
 10 32  1  0
 11 33  1  0
 12 13  1  0
 12 34  1  0
 13 14  2  0
 13 35  1  0
 14 15  1  0
 15 16  1  0
 15 36  1  6
 15 37  1  0
 16 17  1  0
 16 29  1  1
 16 54  1  0
 17 18  1  0
 17 38  1  1
 17 39  1  0
 18 19  1  0
 18 40  1  6
 18 41  1  0
 19 20  1  0
 19 24  2  0
 20 21  2  0
 20 42  1  0
 21 22  1  0
 21 43  1  0
 22 23  2  0
 22 25  1  0
 23 24  1  0
 23 44  1  0
 24 45  1  0
 25 26  1  0
 25 46  1  6
 25 47  1  0
 26 27  1  0
 26 28  1  0
 26 55  1  1
 27 48  1  6
 27 49  1  0
 27 50  1  0
 28 51  1  6
 28 52  1  0
 28 53  1  0
M  CHG  4   7   1   8  -1  16   1  26   1
M  END
>  <s_epik_cmdline>  (37) 
J2VwaWtfcHl0aG9uJywgJy1waCcsICc3LjAwMDAwMCcsICctcGh0JywgJzIuMDAwMDAwJywgJy1tcycsICcxNicsICctdG4nLCAnOCcsICctbWEnLCAnMjAwJywgJy1pbWFlJywgJzxpbmZpbGUubWFlPicsICctb21hZScsICc8b3V0ZmlsZS5tYWU+Jw==

>  <s_epik_input>  (37) 
W08tXVtOK10oPU8pYyhbY0hdW2NIXTEpW2NIXVtjSF1jMS1jMnNjKFtjSF1bY0hdMilbQ0gyXVtOSF1bQ0gyXVtDSDJdYzNbY0hdW2NIXWMoW2NIXVtjSF0zKVtDSDJdTihbQ0gzXSlbQ0gzXQ==

>  <s_i_glide_gridfile>  (37) 
ATP-Grid

>  <s_lp_Force_Field>  (37) 
OPLS_2005

>  <s_lp_Variant>  (37) 
m_270004bbb____15775648____7548658-1

>  <s_lp_label>  (37) 
1743_sdstereoexpander_1_neutralizer_1_epik_1_stereoizer_1

>  <s_m_source_file>  (37) 
ATP-VSW-LIGPREP-002-in.maegz

>  <s_sd_BIOSOLVEIT.INFINISEE\_QUERY\_NAME>  (37) 
Ref-Lig

>  <s_sd_BIOSOLVEIT.INFINISEE\_QUERY\_SMILES>  (37) 
S(c1nc2c(cc1C[NH2+]Cc3ccc(cc3)C[NH+](C)C)cccc2)Cc4ccccc4

>  <s_sd_BIOSOLVEIT.INFINISEE\_REACTION\_NAME>  (37) 
m_270004bbb

>  <s_sd_BIOSOLVEIT.INFINISEE\_REAGENT1\_SMILES>  (37) 
[R1*]NCCc1ccc(cc1)CN(C)C

>  <s_sd_BIOSOLVEIT.INFINISEE\_REAGENT2\_SMILES>  (37) 
[R1*]CC=1SC(c2ccc([N+]([O-])=O)cc2)=CC1

>  <s_sd_BIOSOLVEIT.INFINISEE\_SPACE>  (37) 
REALSpace_44bn_2023-08

>  <s_vsw_compound_code>  (37) 
55746

>  <s_vsw_variant>  (37) 
55746-1

>  <r_epik_Charging_Adjusted_Penalty>  (37) 
0.127492986648304

>  <r_epik_Ionization_Penalty>  (37) 
0.064399999999999999

>  <r_epik_Ionization_Penalty_Charging>  (37) 
0.064399999999999999

>  <r_epik_Ionization_Penalty_Neutral>  (37) 
0

>  <r_epik_State_Penalty>  (37) 
0.063100000000000003

>  <r_i_docking_score>  (37) 
-6.1179949635366402

>  <r_i_glide_ecoul>  (37) 
-13.385217666626

>  <r_i_glide_eff_state_penalty>  (37) 
0.063100000000000003

>  <r_i_glide_einternal>  (37) 
4.8753113746643102

>  <r_i_glide_emodel>  (37) 
-75.413791174209706

>  <r_i_glide_energy>  (37) 
-49.280309677124002

>  <r_i_glide_erotb>  (37) 
0.86709312904320202

>  <r_i_glide_esite>  (37) 
-0.224538824597563

>  <r_i_glide_evdw>  (37) 
-35.895092010497997

>  <r_i_glide_gscore>  (37) 
-6.1810949635366397

>  <r_i_glide_hbond>  (37) 
-0.197466287426416

>  <r_i_glide_ligand_efficiency>  (37) 
-0.218499820126308

>  <r_i_glide_ligand_efficiency_ln>  (37) 
-1.4122128697218901

>  <r_i_glide_ligand_efficiency_sa>  (37) 
-0.66349414341539803

>  <r_i_glide_lipo>  (37) 
-1.9000185482188801

>  <r_i_glide_metal>  (37) 
-0

>  <r_i_glide_rewards>  (37) 
-0.92362718181818004

>  <r_lp_Energy>  (37) 
20.179513

>  <r_qp_ACxDN^.5/SA>  (37) 
0.0058973999999999997

>  <r_qp_CIQPlogS>  (37) 
-4.3810000000000002

>  <r_qp_EA(eV)>  (37) 
1.6200000000000001

>  <r_qp_FISA>  (37) 
118.892

>  <r_qp_FOSA>  (37) 
282.61599999999999

>  <r_qp_IP(eV)>  (37) 
9.0950000000000006

>  <r_qp_Jm>  (37) 
7.05265403698731e-06

>  <r_qp_PISA>  (37) 
337.76999999999998

>  <r_qp_PSA>  (37) 
64.548000000000002

>  <r_qp_PercentHumanOralAbsorption>  (37) 
82.218999999999994

>  <r_qp_QPPCaco>  (37) 
45.945999999999998

>  <r_qp_QPPMDCK>  (37) 
29.265999999999998

>  <r_qp_QPlogBB>  (37) 
-0.41099999999999998

>  <r_qp_QPlogHERG>  (37) 
-8.3659999999999997

>  <r_qp_QPlogKhsa>  (37) 
1.01

>  <r_qp_QPlogKp>  (37) 
-5.8780000000000001

>  <r_qp_QPlogPC16>  (37) 
14.382

>  <r_qp_QPlogPo/w>  (37) 
4.359

>  <r_qp_QPlogPoct>  (37) 
19.498999999999999

>  <r_qp_QPlogPw>  (37) 
8.8019999999999996

>  <r_qp_QPlogS>  (37) 
-4.8710000000000004

>  <r_qp_QPpolrz>  (37) 
45.207000000000001

>  <r_qp_SASA>  (37) 
763.048

>  <r_qp_SAamideO>  (37) 
0

>  <r_qp_SAfluorine>  (37) 
0

>  <r_qp_WPSA>  (37) 
23.768999999999998

>  <r_qp_accptHB>  (37) 
4.5

>  <r_qp_dip^2/V>  (37) 
0.053092599999999997

>  <r_qp_dipole>  (37) 
8.407

>  <r_qp_donorHB>  (37) 
1

>  <r_qp_glob>  (37) 
0.76694200000000001

>  <r_qp_mol_MW>  (37) 
395.51799999999997

>  <r_qp_volume>  (37) 
1331.1400000000001

>  <r_sd_BIOSOLVEIT.INFINISEE\_FTREES\_SIMILARITY>  (37) 
0.90400000000000003

>  <r_sd_BIOSOLVEIT.LOGP>  (37) 
2.2738999999999998

>  <r_sd_BIOSOLVEIT.MOLECULAR\_WEIGHT>  (37) 
397.53899999999999

>  <r_sd_BIOSOLVEIT.TPSA>  (37) 
66.870000000000005

>  <i_epik_Tot_Q>  (37) 
2

>  <i_epik_Tot_abs_Q>  (37) 
4

>  <i_f3d_flags>  (37) 
0

>  <i_i_glide_confnum>  (37) 
8

>  <i_i_glide_lignum>  (37) 
600

>  <i_i_glide_posenum>  (37) 
1

>  <i_i_glide_rotatable_bonds>  (37) 
9

>  <i_lp_mmshare_version>  (37) 
65135

>  <i_m_ct_format>  (37) 
2

>  <i_m_source_file_index>  (37) 
1743

>  <i_qp_#NandO>  (37) 
5

>  <i_qp_#acid>  (37) 
0

>  <i_qp_#amide>  (37) 
0

>  <i_qp_#amidine>  (37) 
0

>  <i_qp_#amine>  (37) 
2

>  <i_qp_#in34>  (37) 
0

>  <i_qp_#in56>  (37) 
17

>  <i_qp_#metab>  (37) 
7

>  <i_qp_#nonHatm>  (37) 
28

>  <i_qp_#noncon>  (37) 
0

>  <i_qp_#ringatoms>  (37) 
17

>  <i_qp_#rotor>  (37) 
8

>  <i_qp_#rtvFG>  (37) 
0

>  <i_qp_#stars>  (37) 
0

>  <i_qp_CNS>  (37) 
1

>  <i_qp_HumanOralAbsorption>  (37) 
2

>  <i_qp_RuleOfFive>  (37) 
0

>  <i_qp_RuleOfThree>  (37) 
1

>  <i_sd_BIOSOLVEIT.INFINISEE\_REAGENT1\_NAME>  (37) 
15775648

>  <i_sd_BIOSOLVEIT.INFINISEE\_REAGENT2\_NAME>  (37) 
7548658

>  <i_sd_BIOSOLVEIT.INFINISEE\_RESULT\_RANK>  (37) 
74222

>  <i_sd_version>  (37) 
0

>  <b_lp_Chiralities_Consistent>  (37) 
1

>  <b_sd_chiral_flag>  (37) 
0

>  <acquisition_id>  (37) 
ATP-ACQ-0037

>  <canonical_id>  (37) 
ATP-HTVS-8E3D409F2843

>  <compound_code>  (37) 
55746

>  <title>  (37) 
m_270004bbb____15775648____7548658

>  <variant>  (37) 
55746-1

>  <selection_arm>  (37) 
exploitation

>  <priority>  (37) 
P1

>  <wave>  (37) 
2

>  <source_file>  (37) 
运行/运行/ATP-VSW/ATP-VSW-DOCK_HTVS_1-002_lib.maegz

>  <canonical_smiles>  (37) 
C[NH+](C)Cc1ccc(CC[NH2+]Cc2ccc(-c3ccc([N+](=O)[O-])cc3)s2)cc1

$$$$
ATP-ACQ-0038
     RDKit          3D

 51 54  0  0  0  0  0  0  0  0999 V2000
  199.6924  180.8357  156.4219 O   0  0  0  0  0  0  0  0  0  0  0  0
  199.5286  181.6883  155.5515 C   0  0  0  0  0  0  0  0  0  0  0  0
  198.6411  182.7047  155.5110 N   0  0  0  0  0  0  0  0  0  0  0  0
  198.7548  183.4489  154.3040 N   0  0  0  0  0  0  0  0  0  0  0  0
  199.7930  182.8702  153.5625 C   0  0  0  0  0  0  0  0  0  0  0  0
  200.2610  181.7770  154.2695 C   0  0  0  0  0  0  0  0  0  0  0  0
  201.2567  180.9290  153.7547 C   0  0  0  0  0  0  0  0  0  0  0  0
  201.7645  181.2245  152.4680 C   0  0  0  0  0  0  0  0  0  0  0  0
  201.2826  182.3394  151.7388 C   0  0  0  0  0  0  0  0  0  0  0  0
  200.2748  183.1731  152.2751 C   0  0  0  0  0  0  0  0  0  0  0  0
  197.4711  183.5647  153.5915 C   0  0  1  0  0  0  0  0  0  0  0  0
  197.0559  182.3352  152.7635 C   0  0  0  0  0  0  0  0  0  0  0  0
  196.6897  181.1433  153.4181 C   0  0  0  0  0  0  0  0  0  0  0  0
  196.3708  179.9953  152.6746 C   0  0  0  0  0  0  0  0  0  0  0  0
  196.3697  180.0353  151.2720 C   0  0  0  0  0  0  0  0  0  0  0  0
  196.7468  181.2212  150.6115 C   0  0  0  0  0  0  0  0  0  0  0  0
  197.0834  182.3704  151.3515 C   0  0  0  0  0  0  0  0  0  0  0  0
  197.8683  183.1537  156.6042 C   0  0  0  0  0  0  0  0  0  0  0  0
  196.9057  182.3081  157.1864 C   0  0  0  0  0  0  0  0  0  0  0  0
  196.1354  182.7586  158.2801 C   0  0  0  0  0  0  0  0  0  0  0  0
  196.3394  184.0616  158.7891 C   0  0  0  0  0  0  0  0  0  0  0  0
  197.3022  184.9095  158.2013 C   0  0  0  0  0  0  0  0  0  0  0  0
  198.0545  184.4607  157.1016 C   0  0  0  0  0  0  0  0  0  0  0  0
  195.0728  181.8537  158.8909 C   0  0  1  0  0  0  0  0  0  0  0  0
  193.8000  181.8900  158.1380 N   0  0  2  0  0  0  0  0  0  0  0  0
  193.1091  183.1793  158.2462 C   0  0  2  0  0  0  0  0  0  0  0  0
  192.8791  180.7916  158.4795 C   0  0  2  0  0  0  0  0  0  0  0  0
  201.5908  180.0635  154.3105 H   0  0  0  0  0  0  0  0  0  0  0  0
  202.5231  180.5880  152.0345 H   0  0  0  0  0  0  0  0  0  0  0  0
  201.6660  182.5348  150.7491 H   0  0  0  0  0  0  0  0  0  0  0  0
  199.8828  184.0069  151.7123 H   0  0  0  0  0  0  0  0  0  0  0  0
  196.6747  183.8117  154.2968 H   0  0  0  0  0  0  0  0  0  0  0  0
  197.5396  184.4276  152.9220 H   0  0  0  0  0  0  0  0  0  0  0  0
  196.6554  181.1011  154.4961 H   0  0  0  0  0  0  0  0  0  0  0  0
  196.1051  179.0835  153.1952 H   0  0  0  0  0  0  0  0  0  0  0  0
  196.0964  179.1519  150.7114 H   0  0  0  0  0  0  0  0  0  0  0  0
  196.7738  181.2455  149.5289 H   0  0  0  0  0  0  0  0  0  0  0  0
  197.3857  183.2701  150.8339 H   0  0  0  0  0  0  0  0  0  0  0  0
  196.7523  181.3074  156.8114 H   0  0  0  0  0  0  0  0  0  0  0  0
  195.7599  184.4135  159.6332 H   0  0  0  0  0  0  0  0  0  0  0  0
  197.4495  185.9054  158.6050 H   0  0  0  0  0  0  0  0  0  0  0  0
  198.7908  185.1114  156.6593 H   0  0  0  0  0  0  0  0  0  0  0  0
  195.4979  180.8665  158.9801 H   0  0  0  0  0  0  0  0  0  0  0  0
  194.8607  182.1751  159.9028 H   0  0  0  0  0  0  0  0  0  0  0  0
  192.9622  183.5019  159.2844 H   0  0  0  0  0  0  0  0  0  0  0  0
  192.1521  183.0207  157.7776 H   0  0  0  0  0  0  0  0  0  0  0  0
  193.6628  183.9565  157.7288 H   0  0  0  0  0  0  0  0  0  0  0  0
  192.5991  180.8080  159.5250 H   0  0  0  0  0  0  0  0  0  0  0  0
  193.3266  179.8389  158.2685 H   0  0  0  0  0  0  0  0  0  0  0  0
  191.9507  180.8442  157.9011 H   0  0  0  0  0  0  0  0  0  0  0  0
  194.0060  181.8072  157.1342 H   0  0  0  0  0  0  0  0  0  0  0  0
  1  2  2  0
  2  3  1  0
  2  6  1  0
  3  4  1  0
  3 18  1  0
  4  5  1  0
  4 11  1  0
  5  6  1  0
  5 10  2  0
  6  7  2  0
  7  8  1  0
  7 28  1  0
  8  9  2  0
  8 29  1  0
  9 10  1  0
  9 30  1  0
 10 31  1  0
 11 12  1  0
 11 32  1  1
 11 33  1  0
 12 13  2  0
 12 17  1  0
 13 14  1  0
 13 34  1  0
 14 15  2  0
 14 35  1  0
 15 16  1  0
 15 36  1  0
 16 17  2  0
 16 37  1  0
 17 38  1  0
 18 19  2  0
 18 23  1  0
 19 20  1  0
 19 39  1  0
 20 21  2  0
 20 24  1  0
 21 22  1  0
 21 40  1  0
 22 23  2  0
 22 41  1  0
 23 42  1  0
 24 25  1  0
 24 43  1  1
 24 44  1  0
 25 26  1  0
 25 27  1  0
 25 51  1  6
 26 45  1  1
 26 46  1  0
 26 47  1  0
 27 48  1  1
 27 49  1  0
 27 50  1  0
M  CHG  1  25   1
M  END
>  <s_epik_cmdline>  (38) 
J2VwaWtfcHl0aG9uJywgJy1waCcsICc3LjAwMDAwMCcsICctcGh0JywgJzIuMDAwMDAwJywgJy1tcycsICcxNicsICctdG4nLCAnOCcsICctbWEnLCAnMjAwJywgJy1pbWFlJywgJzxpbmZpbGUubWFlPicsICctb21hZScsICc8b3V0ZmlsZS5tYWU+Jw==

>  <s_epik_input>  (38) 
W2NIXTFbY0hdW2NIXVtjSF1jKGMxMiljKD1PKW4oLWMzW2NIXWMoW2NIXVtjSF1bY0hdMylbQ0gyXU4oW0NIM10pW0NIM10pbjJbQ0gyXWM0W2NIXVtjSF1bY0hdW2NIXVtjSF00

>  <s_i_glide_gridfile>  (38) 
ATP-Grid

>  <s_lp_Force_Field>  (38) 
OPLS_2005

>  <s_lp_Variant>  (38) 
N-ArylationHeterocycle____37094440____31229383-1

>  <s_lp_label>  (38) 
652_sdstereoexpander_1_neutralizer_1_epik_1_stereoizer_1

>  <s_m_source_file>  (38) 
ATP-VSW-LIGPREP-003-in.maegz

>  <s_sd_BIOSOLVEIT.INFINISEE\_QUERY\_NAME>  (38) 
Ref-Lig

>  <s_sd_BIOSOLVEIT.INFINISEE\_QUERY\_SMILES>  (38) 
S(c1nc2c(cc1C[NH2+]Cc3ccc(cc3)C[NH+](C)C)cccc2)Cc4ccccc4

>  <s_sd_BIOSOLVEIT.INFINISEE\_REACTION\_NAME>  (38) 
N-ArylationHeterocycle

>  <s_sd_BIOSOLVEIT.INFINISEE\_REAGENT1\_SMILES>  (38) 
OB(O)c1cc(ccc1)CN(C)C

>  <s_sd_BIOSOLVEIT.INFINISEE\_REAGENT2\_SMILES>  (38) 
O=C1NN(c2c1cccc2)Cc3ccccc3

>  <s_sd_BIOSOLVEIT.INFINISEE\_SPACE>  (38) 
KnowledgeSpace_290tr_2019-05

>  <s_vsw_compound_code>  (38) 
20835

>  <s_vsw_variant>  (38) 
20835-1

>  <r_epik_Charging_Adjusted_Penalty>  (38) 
0.114437570616907

>  <r_epik_Ionization_Penalty>  (38) 
0.057200000000000001

>  <r_epik_Ionization_Penalty_Charging>  (38) 
0.057200000000000001

>  <r_epik_Ionization_Penalty_Neutral>  (38) 
0

>  <r_epik_State_Penalty>  (38) 
0.057200000000000001

>  <r_i_docking_score>  (38) 
-3.2402495466166501

>  <r_i_glide_ecoul>  (38) 
-5.9362854957580602

>  <r_i_glide_eff_state_penalty>  (38) 
0.057200000000000001

>  <r_i_glide_einternal>  (38) 
2.6790676116943399

>  <r_i_glide_emodel>  (38) 
-36.316290639489303

>  <r_i_glide_energy>  (38) 
-28.9839844703674

>  <r_i_glide_erotb>  (38) 
0.596337630261489

>  <r_i_glide_esite>  (38) 
-0.10472244515074799

>  <r_i_glide_evdw>  (38) 
-23.0476989746094

>  <r_i_glide_gscore>  (38) 
-3.29744954661665

>  <r_i_glide_hbond>  (38) 
-0.14056187628667799

>  <r_i_glide_ligand_efficiency>  (38) 
-0.12000924246728301

>  <r_i_glide_ligand_efficiency_ln>  (38) 
-0.75427667476360505

>  <r_i_glide_ligand_efficiency_sa>  (38) 
-0.36002772700632002

>  <r_i_glide_lipo>  (38) 
-0.64060344598290397

>  <r_i_glide_metal>  (38) 
-0

>  <r_i_glide_rewards>  (38) 
-0.96507163636363502

>  <r_lp_Energy>  (38) 
46.654995999999997

>  <r_qp_ACxDN^.5/SA>  (38) 
0

>  <r_qp_CIQPlogS>  (38) 
-4.0919999999999996

>  <r_qp_EA(eV)>  (38) 
0.439

>  <r_qp_FISA>  (38) 
44.396999999999998

>  <r_qp_FOSA>  (38) 
203.202

>  <r_qp_IP(eV)>  (38) 
8.7140000000000004

>  <r_qp_Jm>  (38) 
0.358094291330943

>  <r_qp_PISA>  (38) 
394.49799999999999

>  <r_qp_PSA>  (38) 
39.768000000000001

>  <r_qp_PercentHumanOralAbsorption>  (38) 
100

>  <r_qp_QPPCaco>  (38) 
937.10199999999998

>  <r_qp_QPPMDCK>  (38) 
510.19299999999998

>  <r_qp_QPlogBB>  (38) 
0.30399999999999999

>  <r_qp_QPlogHERG>  (38) 
-6.6799999999999997

>  <r_qp_QPlogKhsa>  (38) 
0.28100000000000003

>  <r_qp_QPlogKp>  (38) 
-2.6269999999999998

>  <r_qp_QPlogPC16>  (38) 
12.317

>  <r_qp_QPlogPo/w>  (38) 
3.726

>  <r_qp_QPlogPoct>  (38) 
17.433

>  <r_qp_QPlogPw>  (38) 
9.2769999999999992

>  <r_qp_QPlogS>  (38) 
-3.3730000000000002

>  <r_qp_QPpolrz>  (38) 
42.435000000000002

>  <r_qp_SASA>  (38) 
642.09699999999998

>  <r_qp_SAamideO>  (38) 
0

>  <r_qp_SAfluorine>  (38) 
0

>  <r_qp_WPSA>  (38) 
0

>  <r_qp_accptHB>  (38) 
6

>  <r_qp_dip^2/V>  (38) 
0.0186465

>  <r_qp_dipole>  (38) 
4.6989999999999998

>  <r_qp_donorHB>  (38) 
0

>  <r_qp_glob>  (38) 
0.84302469999999996

>  <r_qp_mol_MW>  (38) 
357.45400000000001

>  <r_qp_volume>  (38) 
1184.1679999999999

>  <r_sd_BIOSOLVEIT.INFINISEE\_FTREES\_SIMILARITY>  (38) 
0.90500000000000003

>  <r_sd_BIOSOLVEIT.LOGP>  (38) 
2.4849999999999999

>  <r_sd_BIOSOLVEIT.MOLECULAR\_WEIGHT>  (38) 
358.46300000000002

>  <r_sd_BIOSOLVEIT.TPSA>  (38) 
31.370000000000001

>  <i_epik_Tot_Q>  (38) 
1

>  <i_epik_Tot_abs_Q>  (38) 
1

>  <i_f3d_flags>  (38) 
0

>  <i_i_glide_confnum>  (38) 
3

>  <i_i_glide_lignum>  (38) 
281

>  <i_i_glide_posenum>  (38) 
11

>  <i_i_glide_rotatable_bonds>  (38) 
5

>  <i_lp_mmshare_version>  (38) 
65135

>  <i_m_ct_format>  (38) 
2

>  <i_m_source_file_index>  (38) 
652

>  <i_qp_#NandO>  (38) 
4

>  <i_qp_#acid>  (38) 
0

>  <i_qp_#amide>  (38) 
0

>  <i_qp_#amidine>  (38) 
0

>  <i_qp_#amine>  (38) 
1

>  <i_qp_#in34>  (38) 
0

>  <i_qp_#in56>  (38) 
21

>  <i_qp_#metab>  (38) 
3

>  <i_qp_#nonHatm>  (38) 
27

>  <i_qp_#noncon>  (38) 
0

>  <i_qp_#ringatoms>  (38) 
21

>  <i_qp_#rotor>  (38) 
4

>  <i_qp_#rtvFG>  (38) 
1

>  <i_qp_#stars>  (38) 
0

>  <i_qp_CNS>  (38) 
1

>  <i_qp_HumanOralAbsorption>  (38) 
3

>  <i_qp_RuleOfFive>  (38) 
0

>  <i_qp_RuleOfThree>  (38) 
0

>  <i_sd_BIOSOLVEIT.INFINISEE\_REAGENT1\_NAME>  (38) 
37094440

>  <i_sd_BIOSOLVEIT.INFINISEE\_REAGENT2\_NAME>  (38) 
31229383

>  <i_sd_BIOSOLVEIT.INFINISEE\_RESULT\_RANK>  (38) 
71198

>  <i_sd_version>  (38) 
0

>  <b_lp_Chiralities_Consistent>  (38) 
1

>  <b_sd_chiral_flag>  (38) 
0

>  <acquisition_id>  (38) 
ATP-ACQ-0038

>  <canonical_id>  (38) 
ATP-HTVS-9CE7151F0CF5

>  <compound_code>  (38) 
20835

>  <title>  (38) 
N-ArylationHeterocycle____37094440____31229383

>  <variant>  (38) 
20835-1

>  <selection_arm>  (38) 
descriptor_diversity

>  <priority>  (38) 
P1

>  <wave>  (38) 
2

>  <source_file>  (38) 
运行/运行/ATP-VSW/ATP-VSW-DOCK_HTVS_1-003_lib/ATP-VSW-DOCK_HTVS_1-003_lib.mae

>  <canonical_smiles>  (38) 
C[NH+](C)Cc1cccc(-n2c(=O)c3ccccc3n2Cc2ccccc2)c1

$$$$
ATP-ACQ-0039
     RDKit          3D

 62 65  0  0  0  0  0  0  0  0999 V2000
  196.7480  179.0327  148.8237 Cl  0  0  0  0  0  0  0  0  0  0  0  0
  197.1671  180.1221  150.0931 C   0  0  0  0  0  0  0  0  0  0  0  0
  198.2165  181.0530  149.9189 C   0  0  0  0  0  0  0  0  0  0  0  0
  198.5288  181.9462  150.9626 C   0  0  0  0  0  0  0  0  0  0  0  0
  197.8233  181.9059  152.1832 C   0  0  0  0  0  0  0  0  0  0  0  0
  196.7829  180.9584  152.3556 C   0  0  0  0  0  0  0  0  0  0  0  0
  196.4512  180.0808  151.3076 C   0  0  0  0  0  0  0  0  0  0  0  0
  198.1897  182.8501  153.2855 C   0  0  0  0  0  0  0  0  0  0  0  0
  198.2772  184.0630  153.0600 O   0  0  0  0  0  0  0  0  0  0  0  0
  198.4766  182.2673  154.4629 N   0  0  0  0  0  0  0  0  0  0  0  0
  198.9415  182.8977  155.6595 C   0  0  0  0  0  0  0  0  0  0  0  0
  199.8448  182.2199  156.5222 C   0  0  0  0  0  0  0  0  0  0  0  0
  200.3011  180.9392  156.1615 N   0  0  0  0  0  0  0  0  0  0  0  0
  199.8255  179.8158  156.9496 C   0  0  1  0  0  0  0  0  0  0  0  0
  200.2329  178.4817  156.3768 C   0  0  0  0  0  0  0  0  0  0  0  0
  200.0772  178.2190  155.0041 C   0  0  0  0  0  0  0  0  0  0  0  0
  200.4807  176.9790  154.4733 C   0  0  0  0  0  0  0  0  0  0  0  0
  201.0153  175.9876  155.3265 C   0  0  0  0  0  0  0  0  0  0  0  0
  201.1486  176.2461  156.7075 C   0  0  0  0  0  0  0  0  0  0  0  0
  200.7556  177.4887  157.2287 C   0  0  0  0  0  0  0  0  0  0  0  0
  201.4235  174.6426  154.7620 C   0  0  1  0  0  0  0  0  0  0  0  0
  202.8018  174.2633  155.1516 N   0  0  1  0  0  0  0  0  0  0  0  0
  203.0848  172.8404  154.8549 C   0  0  2  0  0  0  0  0  0  0  0  0
  203.8386  175.1711  154.6018 C   0  0  2  0  0  0  0  0  0  0  0  0
  200.2865  182.8560  157.7157 C   0  0  0  0  0  0  0  0  0  0  0  0
  199.7549  184.1325  158.0482 C   0  0  0  0  0  0  0  0  0  0  0  0
  198.8940  184.7374  157.1918 N   0  0  0  0  0  0  0  0  0  0  0  0
  198.4796  184.1813  156.0341 C   0  0  0  0  0  0  0  0  0  0  0  0
  200.1314  184.7821  159.2463 C   0  0  0  0  0  0  0  0  0  0  0  0
  201.0266  184.1565  160.1333 C   0  0  0  0  0  0  0  0  0  0  0  0
  201.5798  182.9066  159.8073 C   0  0  0  0  0  0  0  0  0  0  0  0
  201.2540  182.2840  158.5825 C   0  0  0  0  0  0  0  0  0  0  0  0
  199.0047  181.0939  148.6203 C   0  0  2  0  0  0  0  0  0  0  0  0
  199.3272  182.6623  150.8307 H   0  0  0  0  0  0  0  0  0  0  0  0
  196.2242  180.9305  153.2796 H   0  0  0  0  0  0  0  0  0  0  0  0
  195.6467  179.3716  151.4357 H   0  0  0  0  0  0  0  0  0  0  0  0
  198.4581  181.2569  154.4549 H   0  0  0  0  0  0  0  0  0  0  0  0
  200.2528  180.7551  155.1729 H   0  0  0  0  0  0  0  0  0  0  0  0
  200.2469  179.8313  157.9482 H   0  0  0  0  0  0  0  0  0  0  0  0
  198.7383  179.8502  157.0533 H   0  0  0  0  0  0  0  0  0  0  0  0
  199.6578  178.9570  154.3384 H   0  0  0  0  0  0  0  0  0  0  0  0
  200.3508  176.7911  153.4174 H   0  0  0  0  0  0  0  0  0  0  0  0
  201.5396  175.4976  157.3818 H   0  0  0  0  0  0  0  0  0  0  0  0
  200.8739  177.6827  158.2868 H   0  0  0  0  0  0  0  0  0  0  0  0
  200.7079  173.9057  155.1277 H   0  0  0  0  0  0  0  0  0  0  0  0
  201.3421  174.6595  153.6733 H   0  0  0  0  0  0  0  0  0  0  0  0
  203.0597  172.6487  153.7811 H   0  0  0  0  0  0  0  0  0  0  0  0
  202.3513  172.1878  155.3293 H   0  0  0  0  0  0  0  0  0  0  0  0
  204.0652  172.5500  155.2277 H   0  0  0  0  0  0  0  0  0  0  0  0
  203.8223  175.1819  153.5112 H   0  0  0  0  0  0  0  0  0  0  0  0
  204.8311  174.8529  154.9218 H   0  0  0  0  0  0  0  0  0  0  0  0
  203.6982  176.1967  154.9513 H   0  0  0  0  0  0  0  0  0  0  0  0
  197.7936  184.7771  155.4480 H   0  0  0  0  0  0  0  0  0  0  0  0
  199.7396  185.7584  159.4993 H   0  0  0  0  0  0  0  0  0  0  0  0
  201.3044  184.6355  161.0658 H   0  0  0  0  0  0  0  0  0  0  0  0
  202.2674  182.4254  160.4845 H   0  0  0  0  0  0  0  0  0  0  0  0
  201.7572  181.3635  158.3420 H   0  0  0  0  0  0  0  0  0  0  0  0
  199.7773  181.8636  148.6426 H   0  0  0  0  0  0  0  0  0  0  0  0
  198.3474  181.3054  147.7757 H   0  0  0  0  0  0  0  0  0  0  0  0
  199.4954  180.1360  148.4347 H   0  0  0  0  0  0  0  0  0  0  0  0
  202.8406  174.3604  156.1562 H   0  0  0  0  0  0  0  0  0  0  0  0
  198.5349  185.6590  157.4375 H   0  0  0  0  0  0  0  0  0  0  0  0
  1  2  1  0
  2  3  2  0
  2  7  1  0
  3  4  1  0
  3 33  1  0
  4  5  2  0
  4 34  1  0
  5  6  1  0
  5  8  1  0
  6  7  2  0
  6 35  1  0
  7 36  1  0
  8  9  2  0
  8 10  1  0
 10 11  1  0
 10 37  1  0
 11 12  2  0
 11 28  1  0
 12 13  1  0
 12 25  1  0
 13 14  1  0
 13 38  1  0
 14 15  1  0
 14 39  1  1
 14 40  1  0
 15 16  1  0
 15 20  2  0
 16 17  2  0
 16 41  1  0
 17 18  1  0
 17 42  1  0
 18 19  2  0
 18 21  1  0
 19 20  1  0
 19 43  1  0
 20 44  1  0
 21 22  1  0
 21 45  1  1
 21 46  1  0
 22 23  1  0
 22 24  1  0
 22 61  1  1
 23 47  1  6
 23 48  1  0
 23 49  1  0
 24 50  1  6
 24 51  1  0
 24 52  1  0
 25 26  1  0
 25 32  2  0
 26 27  1  0
 26 29  2  0
 27 28  2  0
 27 62  1  0
 28 53  1  0
 29 30  1  0
 29 54  1  0
 30 31  2  0
 30 55  1  0
 31 32  1  0
 31 56  1  0
 32 57  1  0
 33 58  1  1
 33 59  1  0
 33 60  1  0
M  CHG  2  22   1  27   1
M  END
>  <s_epik_cmdline>  (39) 
J2VwaWtfcHl0aG9uJywgJy1waCcsICc3LjAwMDAwMCcsICctcGh0JywgJzIuMDAwMDAwJywgJy1tcycsICcxNicsICctdG4nLCAnOCcsICctbWEnLCAnMjAwJywgJy1pbWFlJywgJzxpbmZpbGUubWFlPicsICctb21hZScsICc8b3V0ZmlsZS5tYWU+Jw==

>  <s_epik_input>  (39) 
Q2xjMWMoW0NIM10pW2NIXWMoW2NIXVtjSF0xKUMoPU8pW05IXWMoW2NIXW5jKGMyMylbY0hdW2NIXVtjSF1bY0hdMyljMltOSF1bQ0gyXWM0W2NIXVtjSF1jKFtjSF1bY0hdNClbQ0gyXU4oW0NIM10pW0NIM10=

>  <s_i_glide_gridfile>  (39) 
ATP-Grid

>  <s_lp_Force_Field>  (39) 
OPLS_2005

>  <s_lp_Variant>  (39) 
rxn502b____EMOL631885____EMOL30488121____EMOL50155899-1

>  <s_lp_label>  (39) 
2252_sdstereoexpander_1_neutralizer_1_epik_1_stereoizer_1

>  <s_m_source_file>  (39) 
ATP-VSW-LIGPREP-001-in.maegz

>  <s_sd_BIOSOLVEIT.INFINISEE\_QUERY\_NAME>  (39) 
Ref-Lig

>  <s_sd_BIOSOLVEIT.INFINISEE\_QUERY\_SMILES>  (39) 
S(c1nc2c(cc1C[NH2+]Cc3ccc(cc3)C[NH+](C)C)cccc2)Cc4ccccc4

>  <s_sd_BIOSOLVEIT.INFINISEE\_REACTION\_NAME>  (39) 
rxn502b

>  <s_sd_BIOSOLVEIT.INFINISEE\_REAGENT1\_NAME>  (39) 
EMOL631885

>  <s_sd_BIOSOLVEIT.INFINISEE\_REAGENT1\_SMILES>  (39) 
Clc1c(cc(cc1)C(=O)O)C

>  <s_sd_BIOSOLVEIT.INFINISEE\_REAGENT2\_NAME>  (39) 
EMOL30488121

>  <s_sd_BIOSOLVEIT.INFINISEE\_REAGENT2\_SMILES>  (39) 
Brc1c(N)cnc2c1cccc2

>  <s_sd_BIOSOLVEIT.INFINISEE\_REAGENT3\_NAME>  (39) 
EMOL50155899

>  <s_sd_BIOSOLVEIT.INFINISEE\_REAGENT3\_SMILES>  (39) 
N(Cc1ccc(cc1)CN)(C)C

>  <s_sd_BIOSOLVEIT.INFINISEE\_SPACE>  (39) 
eXplore_7tr_2022-12

>  <s_vsw_compound_code>  (39) 
72033

>  <s_vsw_variant>  (39) 
72033-1

>  <r_epik_Charging_Adjusted_Penalty>  (39) 
0.24057739898594899

>  <r_epik_Ionization_Penalty>  (39) 
0.1203

>  <r_epik_Ionization_Penalty_Charging>  (39) 
0.1203

>  <r_epik_Ionization_Penalty_Neutral>  (39) 
0.0001

>  <r_epik_State_Penalty>  (39) 
0.1203

>  <r_i_docking_score>  (39) 
-3.8357326887336098

>  <r_i_glide_ecoul>  (39) 
-6.6890821456909197

>  <r_i_glide_eff_state_penalty>  (39) 
0.1203

>  <r_i_glide_einternal>  (39) 
3.1542019844055198

>  <r_i_glide_emodel>  (39) 
-56.619053622230503

>  <r_i_glide_energy>  (39) 
-39.964236259460399

>  <r_i_glide_erotb>  (39) 
0.66313762141204002

>  <r_i_glide_esite>  (39) 
-0.0086144695625613096

>  <r_i_glide_evdw>  (39) 
-33.275154113769503

>  <r_i_glide_gscore>  (39) 
-3.9560326887336101

>  <r_i_glide_hbond>  (39) 
0

>  <r_i_glide_ligand_efficiency>  (39) 
-0.116234323901019

>  <r_i_glide_ligand_efficiency_ln>  (39) 
-0.85304708961339704

>  <r_i_glide_ligand_efficiency_sa>  (39) 
-0.372825583801842

>  <r_i_glide_lipo>  (39) 
-1.6775134948591599

>  <r_i_glide_metal>  (39) 
-0

>  <r_i_glide_rewards>  (39) 
-0.265922318181817

>  <r_lp_Energy>  (39) 
37.759861999999998

>  <r_qp_ACxDN^.5/SA>  (39) 
0.0127478

>  <r_qp_CIQPlogS>  (39) 
-6.1550000000000002

>  <r_qp_EA(eV)>  (39) 
1.0229999999999999

>  <r_qp_FISA>  (39) 
74.947000000000003

>  <r_qp_FOSA>  (39) 
238.053

>  <r_qp_IP(eV)>  (39) 
8.5530000000000008

>  <r_qp_Jm>  (39) 
0.0072216688401207504

>  <r_qp_PISA>  (39) 
362.56

>  <r_qp_PSA>  (39) 
62.795999999999999

>  <r_qp_PercentHumanOralAbsorption>  (39) 
100

>  <r_qp_QPPCaco>  (39) 
480.92899999999997

>  <r_qp_QPPMDCK>  (39) 
440.60500000000002

>  <r_qp_QPlogBB>  (39) 
-0.068000000000000005

>  <r_qp_QPlogHERG>  (39) 
-6.6859999999999999

>  <r_qp_QPlogKhsa>  (39) 
0.78500000000000003

>  <r_qp_QPlogKp>  (39) 
-3.0139999999999998

>  <r_qp_QPlogPC16>  (39) 
14.891999999999999

>  <r_qp_QPlogPo/w>  (39) 
4.6820000000000004

>  <r_qp_QPlogPoct>  (39) 
23.138000000000002

>  <r_qp_QPlogPw>  (39) 
12.234

>  <r_qp_QPlogS>  (39) 
-4.7889999999999997

>  <r_qp_QPpolrz>  (39) 
48.231000000000002

>  <r_qp_SASA>  (39) 
721.09699999999998

>  <r_qp_SAamideO>  (39) 
0

>  <r_qp_SAfluorine>  (39) 
0

>  <r_qp_WPSA>  (39) 
45.536999999999999

>  <r_qp_accptHB>  (39) 
6.5

>  <r_qp_dip^2/V>  (39) 
0.035537800000000001

>  <r_qp_dipole>  (39) 
7.0149999999999997

>  <r_qp_donorHB>  (39) 
2

>  <r_qp_glob>  (39) 
0.83320490000000003

>  <r_qp_mol_MW>  (39) 
458.98899999999998

>  <r_qp_volume>  (39) 
1384.748

>  <r_sd_BIOSOLVEIT.INFINISEE\_FTREES\_SIMILARITY>  (39) 
0.92600000000000005

>  <r_sd_BIOSOLVEIT.LOGP>  (39) 
4.7055199999999999

>  <r_sd_BIOSOLVEIT.MOLECULAR\_WEIGHT>  (39) 
459.99799999999999

>  <r_sd_BIOSOLVEIT.TPSA>  (39) 
58.460000000000001

>  <i_epik_Tot_Q>  (39) 
2

>  <i_epik_Tot_abs_Q>  (39) 
2

>  <i_f3d_flags>  (39) 
0

>  <i_i_glide_confnum>  (39) 
8

>  <i_i_glide_lignum>  (39) 
771

>  <i_i_glide_posenum>  (39) 
8

>  <i_i_glide_rotatable_bonds>  (39) 
8

>  <i_lp_mmshare_version>  (39) 
65135

>  <i_m_ct_format>  (39) 
2

>  <i_m_source_file_index>  (39) 
2252

>  <i_qp_#NandO>  (39) 
5

>  <i_qp_#acid>  (39) 
0

>  <i_qp_#amide>  (39) 
0

>  <i_qp_#amidine>  (39) 
0

>  <i_qp_#amine>  (39) 
1

>  <i_qp_#in34>  (39) 
0

>  <i_qp_#in56>  (39) 
22

>  <i_qp_#metab>  (39) 
7

>  <i_qp_#nonHatm>  (39) 
33

>  <i_qp_#noncon>  (39) 
0

>  <i_qp_#ringatoms>  (39) 
22

>  <i_qp_#rotor>  (39) 
7

>  <i_qp_#rtvFG>  (39) 
0

>  <i_qp_#stars>  (39) 
0

>  <i_qp_CNS>  (39) 
1

>  <i_qp_HumanOralAbsorption>  (39) 
3

>  <i_qp_RuleOfFive>  (39) 
0

>  <i_qp_RuleOfThree>  (39) 
1

>  <i_sd_BIOSOLVEIT.INFINISEE\_RESULT\_RANK>  (39) 
7773

>  <i_sd_version>  (39) 
0

>  <b_lp_Chiralities_Consistent>  (39) 
1

>  <b_sd_chiral_flag>  (39) 
0

>  <acquisition_id>  (39) 
ATP-ACQ-0039

>  <canonical_id>  (39) 
ATP-HTVS-3254A7EDB406

>  <compound_code>  (39) 
72033

>  <title>  (39) 
rxn502b____EMOL631885____EMOL30488121____EMOL50155899

>  <variant>  (39) 
72033-1

>  <selection_arm>  (39) 
score_calibration

>  <priority>  (39) 
P1

>  <wave>  (39) 
2

>  <source_file>  (39) 
运行/运行/ATP-VSW/ATP-VSW-DOCK_HTVS_1-001_lib/ATP-VSW-DOCK_HTVS_1-001_lib

>  <canonical_smiles>  (39) 
Cc1cc(C(=O)Nc2c[nH+]c3ccccc3c2NCc2ccc(C[NH+](C)C)cc2)ccc1Cl

$$$$
ATP-ACQ-0040
     RDKit          3D

 56 59  0  0  0  0  0  0  0  0999 V2000
  197.5497  184.6430  146.3970 Cl  0  0  0  0  0  0  0  0  0  0  0  0
  198.0260  184.7503  148.0513 C   0  0  0  0  0  0  0  0  0  0  0  0
  197.2960  184.0969  149.0628 C   0  0  0  0  0  0  0  0  0  0  0  0
  197.7068  184.1975  150.4150 C   0  0  0  0  0  0  0  0  0  0  0  0
  198.8564  184.9590  150.7326 C   0  0  0  0  0  0  0  0  0  0  0  0
  199.5762  185.6163  149.7202 C   0  0  0  0  0  0  0  0  0  0  0  0
  199.1627  185.5091  148.3813 C   0  0  0  0  0  0  0  0  0  0  0  0
  196.9440  183.5036  151.5404 C   0  0  1  0  0  0  0  0  0  0  0  0
  195.5524  183.5025  151.3341 O   0  0  0  0  0  0  0  0  0  0  0  0
  197.4337  182.0557  151.7286 C   0  0  0  0  0  0  0  0  0  0  0  0
  197.6007  181.3313  150.7456 O   0  0  0  0  0  0  0  0  0  0  0  0
  197.6139  181.6646  153.0045 N   0  0  0  0  0  0  0  0  0  0  0  0
  198.2180  180.4841  153.5131 C   0  0  0  0  0  0  0  0  0  0  0  0
  198.9462  179.6464  152.7384 N   0  0  0  0  0  0  0  0  0  0  0  0
  199.5618  178.5715  153.2729 C   0  0  0  0  0  0  0  0  0  0  0  0
  199.4699  178.2706  154.6555 C   0  0  0  0  0  0  0  0  0  0  0  0
  198.7185  179.1245  155.4780 C   0  0  0  0  0  0  0  0  0  0  0  0
  198.0912  180.2479  154.9099 C   0  0  0  0  0  0  0  0  0  0  0  0
  197.3282  181.1056  155.8065 C   0  0  0  0  0  0  0  0  0  0  0  0
  196.7079  181.7896  156.5996 C   0  0  0  0  0  0  0  0  0  0  0  0
  195.9641  182.6204  157.5508 C   0  0  1  0  0  0  0  0  0  0  0  0
  194.7522  181.8419  157.8031 N   0  0  2  0  0  0  0  0  0  0  0  0
  196.7408  182.9506  158.8451 C   0  0  1  0  0  0  0  0  0  0  0  0
  196.3852  184.3100  159.4224 C   0  0  0  0  0  0  0  0  0  0  0  0
  195.1021  184.5807  159.9498 C   0  0  0  0  0  0  0  0  0  0  0  0
  194.8144  185.8435  160.5032 C   0  0  0  0  0  0  0  0  0  0  0  0
  193.5889  186.0968  161.0181 F   0  0  0  0  0  0  0  0  0  0  0  0
  195.7997  186.8448  160.5317 C   0  0  0  0  0  0  0  0  0  0  0  0
  197.0744  186.5844  159.9991 C   0  0  0  0  0  0  0  0  0  0  0  0
  197.3672  185.3249  159.4457 C   0  0  0  0  0  0  0  0  0  0  0  0
  200.0767  177.1205  155.1941 C   0  0  0  0  0  0  0  0  0  0  0  0
  200.8065  176.2596  154.3559 C   0  0  0  0  0  0  0  0  0  0  0  0
  200.9241  176.5514  152.9843 C   0  0  0  0  0  0  0  0  0  0  0  0
  200.3070  177.7017  152.4521 C   0  0  0  0  0  0  0  0  0  0  0  0
  194.2613  181.8168  156.9058 H   0  0  0  0  0  0  0  0  0  0  0  0
  194.1436  182.2835  158.4741 H   0  0  0  0  0  0  0  0  0  0  0  0
  196.4224  183.5138  148.8090 H   0  0  0  0  0  0  0  0  0  0  0  0
  199.1844  185.0495  151.7588 H   0  0  0  0  0  0  0  0  0  0  0  0
  200.4441  186.2104  149.9712 H   0  0  0  0  0  0  0  0  0  0  0  0
  199.7132  186.0153  147.6040 H   0  0  0  0  0  0  0  0  0  0  0  0
  197.1218  184.0900  152.4452 H   0  0  0  0  0  0  0  0  0  0  0  0
  195.1142  183.4414  152.1909 H   0  0  0  0  0  0  0  0  0  0  0  0
  197.3413  182.3204  153.7159 H   0  0  0  0  0  0  0  0  0  0  0  0
  198.6005  178.9156  156.5346 H   0  0  0  0  0  0  0  0  0  0  0  0
  195.7022  183.5234  157.0005 H   0  0  0  0  0  0  0  0  0  0  0  0
  196.5745  182.1860  159.6001 H   0  0  0  0  0  0  0  0  0  0  0  0
  197.8172  182.9358  158.6620 H   0  0  0  0  0  0  0  0  0  0  0  0
  194.3281  183.8291  159.9521 H   0  0  0  0  0  0  0  0  0  0  0  0
  195.5860  187.8041  160.9762 H   0  0  0  0  0  0  0  0  0  0  0  0
  197.8403  187.3454  160.0451 H   0  0  0  0  0  0  0  0  0  0  0  0
  198.3609  185.1353  159.0616 H   0  0  0  0  0  0  0  0  0  0  0  0
  199.9698  176.8912  156.2455 H   0  0  0  0  0  0  0  0  0  0  0  0
  201.2791  175.3774  154.7631 H   0  0  0  0  0  0  0  0  0  0  0  0
  201.4867  175.8927  152.3384 H   0  0  0  0  0  0  0  0  0  0  0  0
  200.3884  177.9223  151.3987 H   0  0  0  0  0  0  0  0  0  0  0  0
  195.0180  180.8837  158.0629 H   0  0  0  0  0  0  0  0  0  0  0  0
  1  2  1  0
  2  3  2  0
  2  7  1  0
  3  4  1  0
  3 37  1  0
  4  5  2  0
  4  8  1  0
  5  6  1  0
  5 38  1  0
  6  7  2  0
  6 39  1  0
  7 40  1  0
  8  9  1  0
  8 10  1  0
  8 41  1  1
  9 42  1  0
 10 11  2  0
 10 12  1  0
 12 13  1  0
 12 43  1  0
 13 14  2  0
 13 18  1  0
 14 15  1  0
 15 16  1  0
 15 34  2  0
 16 17  1  0
 16 31  2  0
 17 18  2  0
 17 44  1  0
 18 19  1  0
 19 20  3  0
 20 21  1  0
 21 22  1  0
 21 23  1  0
 21 45  1  6
 22 35  1  6
 22 36  1  0
 22 56  1  0
 23 24  1  0
 23 46  1  1
 23 47  1  0
 24 25  1  0
 24 30  2  0
 25 26  2  0
 25 48  1  0
 26 27  1  0
 26 28  1  0
 28 29  2  0
 28 49  1  0
 29 30  1  0
 29 50  1  0
 30 51  1  0
 31 32  1  0
 31 52  1  0
 32 33  2  0
 32 53  1  0
 33 34  1  0
 33 54  1  0
 34 55  1  0
M  CHG  1  22   1
M  END
>  <s_epik_cmdline>  (40) 
J2VwaWtfcHl0aG9uJywgJy1waCcsICc3LjAwMDAwMCcsICctcGh0JywgJzIuMDAwMDAwJywgJy1tcycsICcxNicsICctdG4nLCAnOCcsICctbWEnLCAnMjAwJywgJy1pbWFlJywgJzxpbmZpbGUubWFlPicsICctb21hZScsICc8b3V0ZmlsZS5tYWU+Jw==

>  <s_epik_input>  (40) 
Q2xjMVtjSF1jKFtjSF1bY0hdW2NIXTEpW0NAQEhdKFtPSF0pQyg9TylbTkhdYyhuMiljKFtjSF1jKGMyMylbY0hdW2NIXVtjSF1bY0hdMylDI0NbQ0BASF0oW05IMl0pW0NIMl1jNFtjSF1jKEYpW2NIXVtjSF1bY0hdNA==

>  <s_i_glide_gridfile>  (40) 
ATP-Grid

>  <s_lp_Force_Field>  (40) 
OPLS_2005

>  <s_lp_Variant>  (40) 
rxn503b____EMOL299973501____EMOL44466703____EMOL313110234-7

>  <s_lp_label>  (40) 
2609_sdstereoexpander_3_neutralizer_1_epik_2_stereoizer_1

>  <s_m_source_file>  (40) 
ATP-VSW-LIGPREP-002-in.maegz

>  <s_sd_BIOSOLVEIT.INFINISEE\_QUERY\_NAME>  (40) 
Ref-Lig

>  <s_sd_BIOSOLVEIT.INFINISEE\_QUERY\_SMILES>  (40) 
S(c1nc2c(cc1C[NH2+]Cc3ccc(cc3)C[NH+](C)C)cccc2)Cc4ccccc4

>  <s_sd_BIOSOLVEIT.INFINISEE\_REACTION\_NAME>  (40) 
rxn503b

>  <s_sd_BIOSOLVEIT.INFINISEE\_REAGENT1\_NAME>  (40) 
EMOL299973501

>  <s_sd_BIOSOLVEIT.INFINISEE\_REAGENT1\_SMILES>  (40) 
Clc1cc(ccc1)C(O)C(=O)O

>  <s_sd_BIOSOLVEIT.INFINISEE\_REAGENT2\_NAME>  (40) 
EMOL44466703

>  <s_sd_BIOSOLVEIT.INFINISEE\_REAGENT2\_SMILES>  (40) 
Brc1c(nc2c(c1)cccc2)N

>  <s_sd_BIOSOLVEIT.INFINISEE\_REAGENT3\_NAME>  (40) 
EMOL313110234

>  <s_sd_BIOSOLVEIT.INFINISEE\_REAGENT3\_SMILES>  (40) 
Fc1cc(ccc1)CC(N)C#C

>  <s_sd_BIOSOLVEIT.INFINISEE\_SPACE>  (40) 
eXplore_7tr_2022-12

>  <s_vsw_compound_code>  (40) 
83458

>  <s_vsw_variant>  (40) 
83458-7

>  <r_epik_Charging_Adjusted_Penalty>  (40) 
1.22591159016581

>  <r_epik_Ionization_Penalty>  (40) 
0.61399999999999999

>  <r_epik_Ionization_Penalty_Charging>  (40) 
0.61299999999999999

>  <r_epik_Ionization_Penalty_Neutral>  (40) 
0.001

>  <r_epik_State_Penalty>  (40) 
0.61299999999999999

>  <r_i_docking_score>  (40) 
-6.30624062048678

>  <r_i_glide_ecoul>  (40) 
-16.6838474273682

>  <r_i_glide_eff_state_penalty>  (40) 
0.61299999999999999

>  <r_i_glide_einternal>  (40) 
9.4511337280273402

>  <r_i_glide_emodel>  (40) 
-84.5025834650897

>  <r_i_glide_energy>  (40) 
-54.794511795043903

>  <r_i_glide_erotb>  (40) 
0.37684678745037198

>  <r_i_glide_esite>  (40) 
-0.107654852964943

>  <r_i_glide_evdw>  (40) 
-38.110664367675803

>  <r_i_glide_gscore>  (40) 
-6.9192406204867796

>  <r_i_glide_hbond>  (40) 
-0.37624178842851602

>  <r_i_glide_ligand_efficiency>  (40) 
-0.18547766530843501

>  <r_i_glide_ligand_efficiency_ln>  (40) 
-1.39322543712347

>  <r_i_glide_ligand_efficiency_sa>  (40) 
-0.60087563270029898

>  <r_i_glide_lipo>  (40) 
-2.22728998257928

>  <r_i_glide_metal>  (40) 
-0

>  <r_i_glide_rewards>  (40) 
-0.17679045147540401

>  <r_lp_Energy>  (40) 
24.221543

>  <r_qp_ACxDN^.5/SA>  (40) 
0.016886499999999999

>  <r_qp_CIQPlogS>  (40) 
-6.3499999999999996

>  <r_qp_EA(eV)>  (40) 
1.0369999999999999

>  <r_qp_FISA>  (40) 
120.645

>  <r_qp_FOSA>  (40) 
53.149000000000001

>  <r_qp_IP(eV)>  (40) 
8.7110000000000003

>  <r_qp_Jm>  (40) 
0.0034719268481180699

>  <r_qp_PISA>  (40) 
448.209

>  <r_qp_PSA>  (40) 
92.134

>  <r_qp_PercentHumanOralAbsorption>  (40) 
93.385999999999996

>  <r_qp_QPPCaco>  (40) 
177.304

>  <r_qp_QPPMDCK>  (40) 
347.86799999999999

>  <r_qp_QPlogBB>  (40) 
-0.502

>  <r_qp_QPlogHERG>  (40) 
-7.3150000000000004

>  <r_qp_QPlogKhsa>  (40) 
0.60099999999999998

>  <r_qp_QPlogKp>  (40) 
-3.363

>  <r_qp_QPlogPC16>  (40) 
16.254000000000001

>  <r_qp_QPlogPo/w>  (40) 
4.4729999999999999

>  <r_qp_QPlogPoct>  (40) 
26.875

>  <r_qp_QPlogPw>  (40) 
15.375

>  <r_qp_QPlogS>  (40) 
-4.7729999999999997

>  <r_qp_QPpolrz>  (40) 
47.905000000000001

>  <r_qp_SASA>  (40) 
734.31299999999999

>  <r_qp_SAamideO>  (40) 
0

>  <r_qp_SAfluorine>  (40) 
40.725000000000001

>  <r_qp_WPSA>  (40) 
112.309

>  <r_qp_accptHB>  (40) 
6.2000000000000002

>  <r_qp_dip^2/V>  (40) 
0.074394100000000005

>  <r_qp_dipole>  (40) 
10.163

>  <r_qp_donorHB>  (40) 
4

>  <r_qp_glob>  (40) 
0.81958560000000003

>  <r_qp_mol_MW>  (40) 
473.93299999999999

>  <r_qp_volume>  (40) 
1388.2439999999999

>  <r_sd_BIOSOLVEIT.INFINISEE\_FTREES\_SIMILARITY>  (40) 
0.91100000000000003

>  <r_sd_BIOSOLVEIT.LOGP>  (40) 
3.9041000000000001

>  <r_sd_BIOSOLVEIT.MOLECULAR\_WEIGHT>  (40) 
474.94099999999997

>  <r_sd_BIOSOLVEIT.TPSA>  (40) 
89.859999999999999

>  <i_epik_Tot_Q>  (40) 
1

>  <i_epik_Tot_abs_Q>  (40) 
1

>  <i_f3d_flags>  (40) 
0

>  <i_i_glide_confnum>  (40) 
4

>  <i_i_glide_lignum>  (40) 
1190

>  <i_i_glide_posenum>  (40) 
16

>  <i_i_glide_rotatable_bonds>  (40) 
9

>  <i_lp_mmshare_version>  (40) 
65135

>  <i_m_ct_format>  (40) 
2

>  <i_m_source_file_index>  (40) 
2609

>  <i_qp_#NandO>  (40) 
5

>  <i_qp_#acid>  (40) 
0

>  <i_qp_#amide>  (40) 
0

>  <i_qp_#amidine>  (40) 
0

>  <i_qp_#amine>  (40) 
1

>  <i_qp_#in34>  (40) 
0

>  <i_qp_#in56>  (40) 
22

>  <i_qp_#metab>  (40) 
6

>  <i_qp_#nonHatm>  (40) 
34

>  <i_qp_#noncon>  (40) 
0

>  <i_qp_#ringatoms>  (40) 
22

>  <i_qp_#rotor>  (40) 
9

>  <i_qp_#rtvFG>  (40) 
0

>  <i_qp_#stars>  (40) 
0

>  <i_qp_CNS>  (40) 
0

>  <i_qp_HumanOralAbsorption>  (40) 
3

>  <i_qp_RuleOfFive>  (40) 
0

>  <i_qp_RuleOfThree>  (40) 
0

>  <i_sd_BIOSOLVEIT.INFINISEE\_RESULT\_RANK>  (40) 
42289

>  <i_sd_version>  (40) 
0

>  <b_lp_Chiralities_Consistent>  (40) 
1

>  <b_sd_chiral_flag>  (40) 
0

>  <acquisition_id>  (40) 
ATP-ACQ-0040

>  <canonical_id>  (40) 
ATP-HTVS-8F383301D999

>  <compound_code>  (40) 
83458

>  <title>  (40) 
rxn503b____EMOL299973501____EMOL44466703____EMOL313110234

>  <variant>  (40) 
83458-7

>  <selection_arm>  (40) 
exploitation

>  <priority>  (40) 
P1

>  <wave>  (40) 
2

>  <source_file>  (40) 
运行/运行/ATP-VSW/ATP-VSW-DOCK_HTVS_1-002_lib.maegz

>  <canonical_smiles>  (40) 
[NH3+][C@H](C#Cc1cc2ccccc2nc1NC(=O)[C@H](O)c1cccc(Cl)c1)Cc1cccc(F)c1

$$$$
ATP-ACQ-0041
     RDKit          3D

 54 56  0  0  0  0  0  0  0  0999 V2000
  194.8126  183.0434  158.4252 O   0  0  0  0  0  0  0  0  0  0  0  0
  196.0106  183.6975  158.5566 C   0  0  0  0  0  0  0  0  0  0  0  0
  196.0360  184.7855  159.4409 C   0  0  0  0  0  0  0  0  0  0  0  0
  194.8715  185.0555  160.1276 O   0  0  0  0  0  0  0  0  0  0  0  0
  194.8430  186.2227  160.9190 C   0  0  2  0  0  0  0  0  0  0  0  0
  197.2353  185.5145  159.5902 C   0  0  0  0  0  0  0  0  0  0  0  0
  198.3972  185.1846  158.8640 C   0  0  0  0  0  0  0  0  0  0  0  0
  198.3778  184.1108  157.9519 C   0  0  0  0  0  0  0  0  0  0  0  0
  197.1731  183.3794  157.7994 C   0  0  0  0  0  0  0  0  0  0  0  0
  197.1031  182.3801  156.6786 C   0  0  1  0  0  0  0  0  0  0  0  0
  197.6300  181.0420  157.0435 N   0  0  1  0  0  0  0  0  0  0  0  0
  197.6078  180.0130  155.9754 C   0  0  1  0  0  0  0  0  0  0  0  0
  198.6152  180.2374  154.8481 C   0  0  0  0  0  0  0  0  0  0  0  0
  198.3947  181.1686  153.8035 C   0  0  0  0  0  0  0  0  0  0  0  0
  197.1940  181.8782  153.7834 N   0  0  0  0  0  0  0  0  0  0  0  0
  197.0071  183.0826  153.0215 C   0  0  1  0  0  0  0  0  0  0  0  0
  196.3580  182.7685  151.6811 C   0  0  1  0  0  0  0  0  0  0  0  0
  195.5764  183.8622  151.3188 O   0  0  0  0  0  0  0  0  0  0  0  0
  199.3970  181.3972  152.8334 C   0  0  0  0  0  0  0  0  0  0  0  0
  200.5902  180.6656  152.8653 C   0  0  0  0  0  0  0  0  0  0  0  0
  200.7858  179.6883  153.8541 C   0  0  0  0  0  0  0  0  0  0  0  0
  199.8173  179.4948  154.8570 C   0  0  0  0  0  0  0  0  0  0  0  0
  199.5553  183.8568  157.1848 C   0  0  0  0  0  0  0  0  0  0  0  0
  200.7244  184.6151  157.3758 C   0  0  0  0  0  0  0  0  0  0  0  0
  200.7383  185.6454  158.3254 C   0  0  0  0  0  0  0  0  0  0  0  0
  199.5693  185.9413  159.0469 C   0  0  0  0  0  0  0  0  0  0  0  0
  194.8381  181.6739  158.7856 C   0  0  2  0  0  0  0  0  0  0  0  0
  198.5527  181.1351  157.4452 H   0  0  0  0  0  0  0  0  0  0  0  0
  193.8550  186.3309  161.3509 H   0  0  0  0  0  0  0  0  0  0  0  0
  195.0561  187.1054  160.3219 H   0  0  0  0  0  0  0  0  0  0  0  0
  195.5545  186.1591  161.7354 H   0  0  0  0  0  0  0  0  0  0  0  0
  197.2995  186.3206  160.2969 H   0  0  0  0  0  0  0  0  0  0  0  0
  196.0805  182.3103  156.3265 H   0  0  0  0  0  0  0  0  0  0  0  0
  197.6484  182.8508  155.8456 H   0  0  0  0  0  0  0  0  0  0  0  0
  197.9080  179.0977  156.4736 H   0  0  0  0  0  0  0  0  0  0  0  0
  196.5983  179.8180  155.6014 H   0  0  0  0  0  0  0  0  0  0  0  0
  196.5034  181.7465  154.4996 H   0  0  0  0  0  0  0  0  0  0  0  0
  196.3877  183.7046  153.6629 H   0  0  0  0  0  0  0  0  0  0  0  0
  197.9264  183.6549  152.9239 H   0  0  0  0  0  0  0  0  0  0  0  0
  197.1230  182.5457  150.9420 H   0  0  0  0  0  0  0  0  0  0  0  0
  195.6857  181.9220  151.7753 H   0  0  0  0  0  0  0  0  0  0  0  0
  194.9623  183.9564  152.0647 H   0  0  0  0  0  0  0  0  0  0  0  0
  199.2733  182.1452  152.0624 H   0  0  0  0  0  0  0  0  0  0  0  0
  201.3216  180.8319  152.0918 H   0  0  0  0  0  0  0  0  0  0  0  0
  201.6631  179.0631  153.8155 H   0  0  0  0  0  0  0  0  0  0  0  0
  199.9844  178.7311  155.6010 H   0  0  0  0  0  0  0  0  0  0  0  0
  199.6240  183.0839  156.4359 H   0  0  0  0  0  0  0  0  0  0  0  0
  201.6236  184.3956  156.8135 H   0  0  0  0  0  0  0  0  0  0  0  0
  201.6337  186.2217  158.4976 H   0  0  0  0  0  0  0  0  0  0  0  0
  199.5884  186.7555  159.7484 H   0  0  0  0  0  0  0  0  0  0  0  0
  194.2813  181.0756  158.0614 H   0  0  0  0  0  0  0  0  0  0  0  0
  194.3668  181.5716  159.7501 H   0  0  0  0  0  0  0  0  0  0  0  0
  195.8319  181.2531  158.9353 H   0  0  0  0  0  0  0  0  0  0  0  0
  197.0217  180.6288  157.7408 H   0  0  0  0  0  0  0  0  0  0  0  0
  1  2  1  0
  1 27  1  0
  2  3  1  0
  2  9  2  0
  3  4  1  0
  3  6  2  0
  4  5  1  0
  5 29  1  1
  5 30  1  0
  5 31  1  0
  6  7  1  0
  6 32  1  0
  7  8  1  0
  7 26  2  0
  8  9  1  0
  8 23  2  0
  9 10  1  0
 10 11  1  0
 10 33  1  6
 10 34  1  0
 11 12  1  0
 11 28  1  1
 11 54  1  0
 12 13  1  0
 12 35  1  1
 12 36  1  0
 13 14  1  0
 13 22  2  0
 14 15  1  0
 14 19  2  0
 15 16  1  0
 15 37  1  0
 16 17  1  0
 16 38  1  1
 16 39  1  0
 17 18  1  0
 17 40  1  6
 17 41  1  0
 18 42  1  0
 19 20  1  0
 19 43  1  0
 20 21  2  0
 20 44  1  0
 21 22  1  0
 21 45  1  0
 22 46  1  0
 23 24  1  0
 23 47  1  0
 24 25  2  0
 24 48  1  0
 25 26  1  0
 25 49  1  0
 26 50  1  0
 27 51  1  6
 27 52  1  0
 27 53  1  0
M  CHG  1  11   1
M  END
>  <s_epik_cmdline>  (41) 
J2VwaWtfcHl0aG9uJywgJy1waCcsICc3LjAwMDAwMCcsICctcGh0JywgJzIuMDAwMDAwJywgJy1tcycsICcxNicsICctdG4nLCAnOCcsICctbWEnLCAnMjAwJywgJy1pbWFlJywgJzxpbmZpbGUubWFlPicsICctb21hZScsICc8b3V0ZmlsZS5tYWU+Jw==

>  <s_epik_input>  (41) 
W2NIXTFbY0hdW2NIXVtjSF1jKGMxMiljKGMoT1tDSDNdKWMoW2NIXTIpT1tDSDNdKVtDSDJdW05IXVtDSDJdYzNjKFtOSF1bQ0gyXVtDSDJdW09IXSlbY0hdW2NIXVtjSF1bY0hdMw==

>  <s_i_glide_gridfile>  (41) 
ATP-Grid

>  <s_lp_Force_Field>  (41) 
OPLS_2005

>  <s_lp_Variant>  (41) 
m_270004bbb____25289968____24720450-1

>  <s_lp_label>  (41) 
763_sdstereoexpander_1_neutralizer_1_epik_1_stereoizer_1

>  <s_m_source_file>  (41) 
ATP-VSW-LIGPREP-003-in.maegz

>  <s_sd_BIOSOLVEIT.INFINISEE\_QUERY\_NAME>  (41) 
Ref-Lig

>  <s_sd_BIOSOLVEIT.INFINISEE\_QUERY\_SMILES>  (41) 
S(c1nc2c(cc1C[NH2+]Cc3ccc(cc3)C[NH+](C)C)cccc2)Cc4ccccc4

>  <s_sd_BIOSOLVEIT.INFINISEE\_REACTION\_NAME>  (41) 
m_270004bbb

>  <s_sd_BIOSOLVEIT.INFINISEE\_REAGENT1\_SMILES>  (41) 
[R1*]NCc1c(NCCO)cccc1

>  <s_sd_BIOSOLVEIT.INFINISEE\_REAGENT2\_SMILES>  (41) 
[R1*]Cc1c(OC)c(OC)cc2c1cccc2

>  <s_sd_BIOSOLVEIT.INFINISEE\_SPACE>  (41) 
REALSpace_44bn_2023-08

>  <s_vsw_compound_code>  (41) 
24387

>  <s_vsw_variant>  (41) 
24387-1

>  <r_epik_Charging_Adjusted_Penalty>  (41) 
0.109321511353525

>  <r_epik_Ionization_Penalty>  (41) 
0.054699999999999999

>  <r_epik_Ionization_Penalty_Charging>  (41) 
0.054699999999999999

>  <r_epik_Ionization_Penalty_Neutral>  (41) 
0

>  <r_epik_State_Penalty>  (41) 
0.054699999999999999

>  <r_i_docking_score>  (41) 
-4.7351065952129101

>  <r_i_glide_ecoul>  (41) 
-13.0390892028809

>  <r_i_glide_eff_state_penalty>  (41) 
0.054699999999999999

>  <r_i_glide_einternal>  (41) 
6.10906982421875

>  <r_i_glide_emodel>  (41) 
-54.739503031165597

>  <r_i_glide_energy>  (41) 
-39.707826614379897

>  <r_i_glide_erotb>  (41) 
0.99840485879436602

>  <r_i_glide_esite>  (41) 
-0.11235898080756999

>  <r_i_glide_evdw>  (41) 
-26.668737411498999

>  <r_i_glide_gscore>  (41) 
-4.7898065952129096

>  <r_i_glide_hbond>  (41) 
-0.39807607984432303

>  <r_i_glide_ligand_efficiency>  (41) 
-0.175374318341219

>  <r_i_glide_ligand_efficiency_ln>  (41) 
-1.10225475103228

>  <r_i_glide_ligand_efficiency_sa>  (41) 
-0.52612295444565205

>  <r_i_glide_lipo>  (41) 
-0.85980373325739501

>  <r_i_glide_metal>  (41) 
-0

>  <r_i_glide_rewards>  (41) 
-1.1286724090909099

>  <r_lp_Energy>  (41) 
29.049606000000001

>  <r_qp_ACxDN^.5/SA>  (41) 
0.017057599999999999

>  <r_qp_CIQPlogS>  (41) 
-4.165

>  <r_qp_EA(eV)>  (41) 
0.751

>  <r_qp_FISA>  (41) 
70.703000000000003

>  <r_qp_FOSA>  (41) 
263.44400000000002

>  <r_qp_IP(eV)>  (41) 
7.8090000000000002

>  <r_qp_Jm>  (41) 
4.4396097262875598

>  <r_qp_PISA>  (41) 
244.63800000000001

>  <r_qp_PSA>  (41) 
54.012

>  <r_qp_PercentHumanOralAbsorption>  (41) 
92.694999999999993

>  <r_qp_QPPCaco>  (41) 
527.62800000000004

>  <r_qp_QPPMDCK>  (41) 
274.22000000000003

>  <r_qp_QPlogBB>  (41) 
-0.22600000000000001

>  <r_qp_QPlogHERG>  (41) 
-5.085

>  <r_qp_QPlogKhsa>  (41) 
0.085000000000000006

>  <r_qp_QPlogKp>  (41) 
-3.0630000000000002

>  <r_qp_QPlogPC16>  (41) 
11.609999999999999

>  <r_qp_QPlogPo/w>  (41) 
2.9079999999999999

>  <r_qp_QPlogPoct>  (41) 
18.672999999999998

>  <r_qp_QPlogPw>  (41) 
11.058999999999999

>  <r_qp_QPlogS>  (41) 
-1.853

>  <r_qp_QPpolrz>  (41) 
34.304000000000002

>  <r_qp_SASA>  (41) 
578.78399999999999

>  <r_qp_SAamideO>  (41) 
0

>  <r_qp_SAfluorine>  (41) 
0

>  <r_qp_WPSA>  (41) 
0

>  <r_qp_accptHB>  (41) 
5.7000000000000002

>  <r_qp_dip^2/V>  (41) 
0.021520899999999999

>  <r_qp_dipole>  (41) 
4.8940000000000001

>  <r_qp_donorHB>  (41) 
3

>  <r_qp_glob>  (41) 
0.8973932

>  <r_qp_mol_MW>  (41) 
366.459

>  <r_qp_volume>  (41) 
1113.0160000000001

>  <r_sd_BIOSOLVEIT.INFINISEE\_FTREES\_SIMILARITY>  (41) 
0.92500000000000004

>  <r_sd_BIOSOLVEIT.LOGP>  (41) 
2.5247999999999999

>  <r_sd_BIOSOLVEIT.MOLECULAR\_WEIGHT>  (41) 
367.46600000000001

>  <r_sd_BIOSOLVEIT.TPSA>  (41) 
67.329999999999998

>  <i_epik_Tot_Q>  (41) 
1

>  <i_epik_Tot_abs_Q>  (41) 
1

>  <i_f3d_flags>  (41) 
0

>  <i_i_glide_confnum>  (41) 
5

>  <i_i_glide_lignum>  (41) 
320

>  <i_i_glide_posenum>  (41) 
8

>  <i_i_glide_rotatable_bonds>  (41) 
10

>  <i_lp_mmshare_version>  (41) 
65135

>  <i_m_ct_format>  (41) 
2

>  <i_m_source_file_index>  (41) 
763

>  <i_qp_#NandO>  (41) 
5

>  <i_qp_#acid>  (41) 
0

>  <i_qp_#amide>  (41) 
0

>  <i_qp_#amidine>  (41) 
0

>  <i_qp_#amine>  (41) 
1

>  <i_qp_#in34>  (41) 
0

>  <i_qp_#in56>  (41) 
16

>  <i_qp_#metab>  (41) 
10

>  <i_qp_#nonHatm>  (41) 
27

>  <i_qp_#noncon>  (41) 
0

>  <i_qp_#ringatoms>  (41) 
16

>  <i_qp_#rotor>  (41) 
10

>  <i_qp_#rtvFG>  (41) 
0

>  <i_qp_#stars>  (41) 
2

>  <i_qp_CNS>  (41) 
0

>  <i_qp_HumanOralAbsorption>  (41) 
1

>  <i_qp_RuleOfFive>  (41) 
0

>  <i_qp_RuleOfThree>  (41) 
1

>  <i_sd_BIOSOLVEIT.INFINISEE\_REAGENT1\_NAME>  (41) 
25289968

>  <i_sd_BIOSOLVEIT.INFINISEE\_REAGENT2\_NAME>  (41) 
24720450

>  <i_sd_BIOSOLVEIT.INFINISEE\_RESULT\_RANK>  (41) 
8750

>  <i_sd_version>  (41) 
0

>  <b_lp_Chiralities_Consistent>  (41) 
1

>  <b_sd_chiral_flag>  (41) 
0

>  <acquisition_id>  (41) 
ATP-ACQ-0041

>  <canonical_id>  (41) 
ATP-HTVS-A6940AB4AD1D

>  <compound_code>  (41) 
24387

>  <title>  (41) 
m_270004bbb____25289968____24720450

>  <variant>  (41) 
24387-1

>  <selection_arm>  (41) 
descriptor_diversity

>  <priority>  (41) 
P1

>  <wave>  (41) 
2

>  <source_file>  (41) 
运行/运行/ATP-VSW/ATP-VSW-DOCK_HTVS_1-003_lib/ATP-VSW-DOCK_HTVS_1-003_lib.mae

>  <canonical_smiles>  (41) 
COc1cc2ccccc2c(C[NH2+]Cc2ccccc2NCCO)c1OC

$$$$
ATP-ACQ-0042
     RDKit          3D

 59 62  0  0  0  0  0  0  0  0999 V2000
  196.3490  179.7761  152.3193 Cl  0  0  0  0  0  0  0  0  0  0  0  0
  197.2542  180.3535  150.9590 C   0  0  0  0  0  0  0  0  0  0  0  0
  197.6926  181.7005  150.8387 C   0  0  0  0  0  0  0  0  0  0  0  0
  198.4403  182.0816  149.6987 C   0  0  0  0  0  0  0  0  0  0  0  0
  198.8857  183.3546  149.5626 F   0  0  0  0  0  0  0  0  0  0  0  0
  198.7496  181.1369  148.7006 C   0  0  0  0  0  0  0  0  0  0  0  0
  198.2962  179.8116  148.8179 C   0  0  0  0  0  0  0  0  0  0  0  0
  197.5504  179.4243  149.9443 C   0  0  0  0  0  0  0  0  0  0  0  0
  197.3633  182.7425  151.8719 C   0  0  0  0  0  0  0  0  0  0  0  0
  196.8206  183.7983  151.5448 O   0  0  0  0  0  0  0  0  0  0  0  0
  197.7302  182.4205  153.1266 N   0  0  0  0  0  0  0  0  0  0  0  0
  197.5150  183.1575  154.3257 C   0  0  0  0  0  0  0  0  0  0  0  0
  197.4398  182.4718  155.5717 C   0  0  0  0  0  0  0  0  0  0  0  0
  197.6161  181.0701  155.5763 N   0  0  0  0  0  0  0  0  0  0  0  0
  198.5530  180.4873  156.5243 C   0  0  1  0  0  0  0  0  0  0  0  0
  199.5078  179.4970  155.9089 C   0  0  0  0  0  0  0  0  0  0  0  0
  200.8595  179.8409  155.7216 C   0  0  0  0  0  0  0  0  0  0  0  0
  201.7561  178.8990  155.1865 C   0  0  0  0  0  0  0  0  0  0  0  0
  201.3030  177.6095  154.8352 C   0  0  0  0  0  0  0  0  0  0  0  0
  199.9451  177.2725  155.0185 C   0  0  0  0  0  0  0  0  0  0  0  0
  199.0499  178.2153  155.5555 C   0  0  0  0  0  0  0  0  0  0  0  0
  202.2675  176.5786  154.2791 C   0  0  1  0  0  0  0  0  0  0  0  0
  202.9777  175.8173  155.3366 N   0  0  2  0  0  0  0  0  0  0  0  0
  203.9381  174.8475  154.7608 C   0  0  2  0  0  0  0  0  0  0  0  0
  202.0863  175.1648  156.3268 C   0  0  2  0  0  0  0  0  0  0  0  0
  197.2075  183.2329  156.7621 C   0  0  0  0  0  0  0  0  0  0  0  0
  197.1519  184.6531  156.6700 C   0  0  0  0  0  0  0  0  0  0  0  0
  197.2711  185.2483  155.4650 N   0  0  0  0  0  0  0  0  0  0  0  0
  197.4305  184.5690  154.3141 C   0  0  0  0  0  0  0  0  0  0  0  0
  196.9621  185.4547  157.8158 C   0  0  0  0  0  0  0  0  0  0  0  0
  196.8119  184.8537  159.0785 C   0  0  0  0  0  0  0  0  0  0  0  0
  196.8294  183.4509  159.1860 C   0  0  0  0  0  0  0  0  0  0  0  0
  196.9991  182.6484  158.0403 C   0  0  0  0  0  0  0  0  0  0  0  0
  199.3272  181.4396  147.8401 H   0  0  0  0  0  0  0  0  0  0  0  0
  198.5216  179.0924  148.0446 H   0  0  0  0  0  0  0  0  0  0  0  0
  197.1957  178.4076  150.0304 H   0  0  0  0  0  0  0  0  0  0  0  0
  198.1246  181.5001  153.2422 H   0  0  0  0  0  0  0  0  0  0  0  0
  197.5528  180.5733  154.6975 H   0  0  0  0  0  0  0  0  0  0  0  0
  199.1387  181.2632  157.0206 H   0  0  0  0  0  0  0  0  0  0  0  0
  197.9952  179.9558  157.2953 H   0  0  0  0  0  0  0  0  0  0  0  0
  201.2126  180.8217  156.0084 H   0  0  0  0  0  0  0  0  0  0  0  0
  202.7970  179.1661  155.0687 H   0  0  0  0  0  0  0  0  0  0  0  0
  199.5837  176.2835  154.7808 H   0  0  0  0  0  0  0  0  0  0  0  0
  198.0176  177.9423  155.7295 H   0  0  0  0  0  0  0  0  0  0  0  0
  201.7239  175.8953  153.6266 H   0  0  0  0  0  0  0  0  0  0  0  0
  202.9998  177.0914  153.6535 H   0  0  0  0  0  0  0  0  0  0  0  0
  203.4222  174.0874  154.1712 H   0  0  0  0  0  0  0  0  0  0  0  0
  204.4950  174.3255  155.5400 H   0  0  0  0  0  0  0  0  0  0  0  0
  204.6599  175.3441  154.1101 H   0  0  0  0  0  0  0  0  0  0  0  0
  201.4140  174.4551  155.8415 H   0  0  0  0  0  0  0  0  0  0  0  0
  201.4854  175.8922  156.8743 H   0  0  0  0  0  0  0  0  0  0  0  0
  202.6756  174.6348  157.0745 H   0  0  0  0  0  0  0  0  0  0  0  0
  197.5075  185.1863  153.4311 H   0  0  0  0  0  0  0  0  0  0  0  0
  196.9218  186.5337  157.7365 H   0  0  0  0  0  0  0  0  0  0  0  0
  196.6667  185.4657  159.9598 H   0  0  0  0  0  0  0  0  0  0  0  0
  196.7094  182.9766  160.1506 H   0  0  0  0  0  0  0  0  0  0  0  0
  196.9485  181.5785  158.1828 H   0  0  0  0  0  0  0  0  0  0  0  0
  203.5015  176.5024  155.8684 H   0  0  0  0  0  0  0  0  0  0  0  0
  197.2101  186.2681  155.4091 H   0  0  0  0  0  0  0  0  0  0  0  0
  1  2  1  0
  2  3  1  0
  2  8  2  0
  3  4  2  0
  3  9  1  0
  4  5  1  0
  4  6  1  0
  6  7  2  0
  6 34  1  0
  7  8  1  0
  7 35  1  0
  8 36  1  0
  9 10  2  0
  9 11  1  0
 11 12  1  0
 11 37  1  0
 12 13  2  0
 12 29  1  0
 13 14  1  0
 13 26  1  0
 14 15  1  0
 14 38  1  0
 15 16  1  0
 15 39  1  1
 15 40  1  0
 16 17  1  0
 16 21  2  0
 17 18  2  0
 17 41  1  0
 18 19  1  0
 18 42  1  0
 19 20  2  0
 19 22  1  0
 20 21  1  0
 20 43  1  0
 21 44  1  0
 22 23  1  0
 22 45  1  6
 22 46  1  0
 23 24  1  0
 23 25  1  0
 23 58  1  1
 24 47  1  6
 24 48  1  0
 24 49  1  0
 25 50  1  6
 25 51  1  0
 25 52  1  0
 26 27  1  0
 26 33  2  0
 27 28  1  0
 27 30  2  0
 28 29  2  0
 28 59  1  0
 29 53  1  0
 30 31  1  0
 30 54  1  0
 31 32  2  0
 31 55  1  0
 32 33  1  0
 32 56  1  0
 33 57  1  0
M  CHG  2  23   1  28   1
M  END
>  <s_epik_cmdline>  (42) 
J2VwaWtfcHl0aG9uJywgJy1waCcsICc3LjAwMDAwMCcsICctcGh0JywgJzIuMDAwMDAwJywgJy1tcycsICcxNicsICctdG4nLCAnOCcsICctbWEnLCAnMjAwJywgJy1pbWFlJywgJzxpbmZpbGUubWFlPicsICctb21hZScsICc8b3V0ZmlsZS5tYWU+Jw==

>  <s_epik_input>  (42) 
W2NIXTFbY0hdW2NIXWMoRiljKGMxQ2wpQyg9TylbTkhdYyhbY0hdbmMoYzIzKVtjSF1bY0hdW2NIXVtjSF0zKWMyW05IXVtDSDJdYzRbY0hdW2NIXWMoW2NIXVtjSF00KVtDSDJdTihbQ0gzXSlbQ0gzXQ==

>  <s_i_glide_gridfile>  (42) 
ATP-Grid

>  <s_lp_Force_Field>  (42) 
OPLS_2005

>  <s_lp_Variant>  (42) 
rxn502b____EMOL485774____EMOL30488121____EMOL50155899-1

>  <s_lp_label>  (42) 
2241_sdstereoexpander_1_neutralizer_1_epik_1_stereoizer_1

>  <s_m_source_file>  (42) 
ATP-VSW-LIGPREP-003-in.maegz

>  <s_sd_BIOSOLVEIT.INFINISEE\_QUERY\_NAME>  (42) 
Ref-Lig

>  <s_sd_BIOSOLVEIT.INFINISEE\_QUERY\_SMILES>  (42) 
S(c1nc2c(cc1C[NH2+]Cc3ccc(cc3)C[NH+](C)C)cccc2)Cc4ccccc4

>  <s_sd_BIOSOLVEIT.INFINISEE\_REACTION\_NAME>  (42) 
rxn502b

>  <s_sd_BIOSOLVEIT.INFINISEE\_REAGENT1\_NAME>  (42) 
EMOL485774

>  <s_sd_BIOSOLVEIT.INFINISEE\_REAGENT1\_SMILES>  (42) 
Clc1c(c(F)ccc1)C(=O)O

>  <s_sd_BIOSOLVEIT.INFINISEE\_REAGENT2\_NAME>  (42) 
EMOL30488121

>  <s_sd_BIOSOLVEIT.INFINISEE\_REAGENT2\_SMILES>  (42) 
Brc1c(N)cnc2c1cccc2

>  <s_sd_BIOSOLVEIT.INFINISEE\_REAGENT3\_NAME>  (42) 
EMOL50155899

>  <s_sd_BIOSOLVEIT.INFINISEE\_REAGENT3\_SMILES>  (42) 
N(Cc1ccc(cc1)CN)(C)C

>  <s_sd_BIOSOLVEIT.INFINISEE\_SPACE>  (42) 
eXplore_7tr_2022-12

>  <s_vsw_compound_code>  (42) 
71683

>  <s_vsw_variant>  (42) 
71683-1

>  <r_epik_Charging_Adjusted_Penalty>  (42) 
0.235705393499727

>  <r_epik_Ionization_Penalty>  (42) 
0.1211

>  <r_epik_Ionization_Penalty_Charging>  (42) 
0.1203

>  <r_epik_Ionization_Penalty_Neutral>  (42) 
0.00080000000000000004

>  <r_epik_State_Penalty>  (42) 
0.1154

>  <r_i_docking_score>  (42) 
-3.8367353083768001

>  <r_i_glide_ecoul>  (42) 
-8.1547832489013707

>  <r_i_glide_eff_state_penalty>  (42) 
0.1154

>  <r_i_glide_einternal>  (42) 
2.5048573017120401

>  <r_i_glide_emodel>  (42) 
-57.118562710794301

>  <r_i_glide_energy>  (42) 
-43.454229354858398

>  <r_i_glide_erotb>  (42) 
0.65287121805677995

>  <r_i_glide_esite>  (42) 
-0.067981369179103301

>  <r_i_glide_evdw>  (42) 
-35.299446105957003

>  <r_i_glide_gscore>  (42) 
-3.9521353083767998

>  <r_i_glide_hbond>  (42) 
0

>  <r_i_glide_ligand_efficiency>  (42) 
-0.116264706314448

>  <r_i_glide_ligand_efficiency_ln>  (42) 
-0.85327006703075503

>  <r_i_glide_ligand_efficiency_sa>  (42) 
-0.37292303643583302

>  <r_i_glide_lipo>  (42) 
-1.06532368066099

>  <r_i_glide_metal>  (42) 
-0

>  <r_i_glide_rewards>  (42) 
-0.48351168396043398

>  <r_lp_Energy>  (42) 
42.835189

>  <r_qp_ACxDN^.5/SA>  (42) 
0.0124925

>  <r_qp_CIQPlogS>  (42) 
-6.2350000000000003

>  <r_qp_EA(eV)>  (42) 
0.96199999999999997

>  <r_qp_FISA>  (42) 
70.947000000000003

>  <r_qp_FOSA>  (42) 
216.71100000000001

>  <r_qp_IP(eV)>  (42) 
8.4689999999999994

>  <r_qp_Jm>  (42) 
0.0044815690020071396

>  <r_qp_PISA>  (42) 
380.79700000000003

>  <r_qp_PSA>  (42) 
61.420000000000002

>  <r_qp_PercentHumanOralAbsorption>  (42) 
100

>  <r_qp_QPPCaco>  (42) 
524.82100000000003

>  <r_qp_QPPMDCK>  (42) 
637.80399999999997

>  <r_qp_QPlogBB>  (42) 
-0.01

>  <r_qp_QPlogHERG>  (42) 
-7.0949999999999998

>  <r_qp_QPlogKhsa>  (42) 
0.751

>  <r_qp_QPlogKp>  (42) 
-2.8759999999999999

>  <r_qp_QPlogPC16>  (42) 
14.617000000000001

>  <r_qp_QPlogPo/w>  (42) 
4.75

>  <r_qp_QPlogPoct>  (42) 
23.387

>  <r_qp_QPlogPw>  (42) 
12.374000000000001

>  <r_qp_QPlogS>  (42) 
-5.1379999999999999

>  <r_qp_QPpolrz>  (42) 
48.079000000000001

>  <r_qp_SASA>  (42) 
735.83199999999999

>  <r_qp_SAamideO>  (42) 
0

>  <r_qp_SAfluorine>  (42) 
37.234000000000002

>  <r_qp_WPSA>  (42) 
67.376999999999995

>  <r_qp_accptHB>  (42) 
6.5

>  <r_qp_dip^2/V>  (42) 
0.055562199999999999

>  <r_qp_dipole>  (42) 
8.7460000000000004

>  <r_qp_donorHB>  (42) 
2

>  <r_qp_glob>  (42) 
0.81331070000000005

>  <r_qp_mol_MW>  (42) 
462.95299999999997

>  <r_qp_volume>  (42) 
1376.5909999999999

>  <r_sd_BIOSOLVEIT.INFINISEE\_FTREES\_SIMILARITY>  (42) 
0.92700000000000005

>  <r_sd_BIOSOLVEIT.LOGP>  (42) 
4.5362

>  <r_sd_BIOSOLVEIT.MOLECULAR\_WEIGHT>  (42) 
463.96199999999999

>  <r_sd_BIOSOLVEIT.TPSA>  (42) 
58.460000000000001

>  <i_epik_Tot_Q>  (42) 
2

>  <i_epik_Tot_abs_Q>  (42) 
2

>  <i_f3d_flags>  (42) 
0

>  <i_i_glide_confnum>  (42) 
11

>  <i_i_glide_lignum>  (42) 
911

>  <i_i_glide_posenum>  (42) 
14

>  <i_i_glide_rotatable_bonds>  (42) 
8

>  <i_lp_mmshare_version>  (42) 
65135

>  <i_m_ct_format>  (42) 
2

>  <i_m_source_file_index>  (42) 
2241

>  <i_qp_#NandO>  (42) 
5

>  <i_qp_#acid>  (42) 
0

>  <i_qp_#amide>  (42) 
0

>  <i_qp_#amidine>  (42) 
0

>  <i_qp_#amine>  (42) 
1

>  <i_qp_#in34>  (42) 
0

>  <i_qp_#in56>  (42) 
22

>  <i_qp_#metab>  (42) 
6

>  <i_qp_#nonHatm>  (42) 
33

>  <i_qp_#noncon>  (42) 
0

>  <i_qp_#ringatoms>  (42) 
22

>  <i_qp_#rotor>  (42) 
7

>  <i_qp_#rtvFG>  (42) 
0

>  <i_qp_#stars>  (42) 
0

>  <i_qp_CNS>  (42) 
1

>  <i_qp_HumanOralAbsorption>  (42) 
3

>  <i_qp_RuleOfFive>  (42) 
0

>  <i_qp_RuleOfThree>  (42) 
0

>  <i_sd_BIOSOLVEIT.INFINISEE\_RESULT\_RANK>  (42) 
6948

>  <i_sd_version>  (42) 
0

>  <b_lp_Chiralities_Consistent>  (42) 
1

>  <b_sd_chiral_flag>  (42) 
0

>  <acquisition_id>  (42) 
ATP-ACQ-0042

>  <canonical_id>  (42) 
ATP-HTVS-A5353E166184

>  <compound_code>  (42) 
71683

>  <title>  (42) 
rxn502b____EMOL485774____EMOL30488121____EMOL50155899

>  <variant>  (42) 
71683-1

>  <selection_arm>  (42) 
score_calibration

>  <priority>  (42) 
P1

>  <wave>  (42) 
2

>  <source_file>  (42) 
运行/运行/ATP-VSW/ATP-VSW-DOCK_HTVS_1-003_lib/ATP-VSW-DOCK_HTVS_1-003_lib.mae

>  <canonical_smiles>  (42) 
C[NH+](C)Cc1ccc(CNc2c(NC(=O)c3c(F)cccc3Cl)c[nH+]c3ccccc23)cc1

$$$$
ATP-ACQ-0043
     RDKit          3D

 54 57  0  0  0  0  0  0  0  0999 V2000
  198.3785  178.4651  150.1619 F   0  0  0  0  0  0  0  0  0  0  0  0
  197.8834  179.2457  151.1493 C   0  0  0  0  0  0  0  0  0  0  0  0
  198.4082  179.1398  152.4558 C   0  0  0  0  0  0  0  0  0  0  0  0
  197.9081  179.9371  153.5131 C   0  0  0  0  0  0  0  0  0  0  0  0
  196.8775  180.8535  153.1794 C   0  0  0  0  0  0  0  0  0  0  0  0
  196.5079  181.5597  154.2991 O   0  0  0  0  0  0  0  0  0  0  0  0
  197.2937  181.1120  155.3221 C   0  0  0  0  0  0  0  0  0  0  0  0
  198.1654  180.1217  154.9196 C   0  0  0  0  0  0  0  0  0  0  0  0
  199.1928  179.3762  155.6594 C   0  0  0  0  0  0  0  0  0  0  0  0
  199.3703  177.9915  155.4461 C   0  0  0  0  0  0  0  0  0  0  0  0
  200.3484  177.2668  156.1561 C   0  0  0  0  0  0  0  0  0  0  0  0
  201.1483  177.9227  157.1079 C   0  0  0  0  0  0  0  0  0  0  0  0
  200.9837  179.3027  157.3307 C   0  0  0  0  0  0  0  0  0  0  0  0
  200.0145  180.0267  156.6065 C   0  0  0  0  0  0  0  0  0  0  0  0
  197.0582  181.7561  156.6430 C   0  0  1  0  0  0  0  0  0  0  0  0
  195.6830  181.5349  157.1271 N   0  0  1  0  0  0  0  0  0  0  0  0
  195.5231  181.6709  158.5892 C   0  0  1  0  0  0  0  0  0  0  0  0
  195.6932  183.0894  159.0753 C   0  0  0  0  0  0  0  0  0  0  0  0
  196.9902  183.5895  159.2960 C   0  0  0  0  0  0  0  0  0  0  0  0
  197.1635  184.9036  159.7584 C   0  0  0  0  0  0  0  0  0  0  0  0
  196.0439  185.7419  159.9521 C   0  0  0  0  0  0  0  0  0  0  0  0
  194.7530  185.2160  159.7650 C   0  0  0  0  0  0  0  0  0  0  0  0
  194.5636  183.8972  159.3162 C   0  0  0  0  0  0  0  0  0  0  0  0
  196.2256  187.1864  160.4049 C   0  0  1  0  0  0  0  0  0  0  0  0
  196.8746  188.1348  159.3620 C   0  0  1  0  0  0  0  0  0  0  0  0
  197.1347  189.3685  160.0031 O   0  0  0  0  0  0  0  0  0  0  0  0
  198.1963  187.6630  158.7296 C   0  0  2  0  0  0  0  0  0  0  0  0
  196.3502  180.9885  151.8867 C   0  0  0  0  0  0  0  0  0  0  0  0
  196.8573  180.1698  150.8614 C   0  0  0  0  0  0  0  0  0  0  0  0
  194.9935  182.0757  156.6017 H   0  0  0  0  0  0  0  0  0  0  0  0
  199.2072  178.4381  152.6447 H   0  0  0  0  0  0  0  0  0  0  0  0
  198.7533  177.4589  154.7435 H   0  0  0  0  0  0  0  0  0  0  0  0
  200.4733  176.2093  155.9786 H   0  0  0  0  0  0  0  0  0  0  0  0
  201.9005  177.3770  157.6553 H   0  0  0  0  0  0  0  0  0  0  0  0
  201.5990  179.8078  158.0603 H   0  0  0  0  0  0  0  0  0  0  0  0
  199.9111  181.0857  156.7871 H   0  0  0  0  0  0  0  0  0  0  0  0
  197.7242  181.3134  157.3786 H   0  0  0  0  0  0  0  0  0  0  0  0
  197.2849  182.8229  156.5848 H   0  0  0  0  0  0  0  0  0  0  0  0
  194.5354  181.2961  158.8701 H   0  0  0  0  0  0  0  0  0  0  0  0
  196.2512  181.0363  159.1005 H   0  0  0  0  0  0  0  0  0  0  0  0
  197.8634  182.9774  159.1215 H   0  0  0  0  0  0  0  0  0  0  0  0
  198.1626  185.2434  159.9557 H   0  0  0  0  0  0  0  0  0  0  0  0
  193.8847  185.8261  159.9500 H   0  0  0  0  0  0  0  0  0  0  0  0
  193.5680  183.5057  159.1503 H   0  0  0  0  0  0  0  0  0  0  0  0
  195.2544  187.6040  160.6874 H   0  0  0  0  0  0  0  0  0  0  0  0
  196.7897  187.1600  161.3319 H   0  0  0  0  0  0  0  0  0  0  0  0
  196.1704  188.3098  158.5472 H   0  0  0  0  0  0  0  0  0  0  0  0
  197.7833  189.2420  160.6847 H   0  0  0  0  0  0  0  0  0  0  0  0
  198.0506  186.7745  158.1119 H   0  0  0  0  0  0  0  0  0  0  0  0
  198.9270  187.4211  159.5036 H   0  0  0  0  0  0  0  0  0  0  0  0
  198.6440  188.4223  158.0884 H   0  0  0  0  0  0  0  0  0  0  0  0
  195.5680  181.7093  151.6981 H   0  0  0  0  0  0  0  0  0  0  0  0
  196.4746  180.2524  149.8551 H   0  0  0  0  0  0  0  0  0  0  0  0
  195.5184  180.5319  157.0107 H   0  0  0  0  0  0  0  0  0  0  0  0
  1  2  1  0
  2  3  1  0
  2 29  2  0
  3  4  2  0
  3 31  1  0
  4  5  1  0
  4  8  1  0
  5  6  1  0
  5 28  2  0
  6  7  1  0
  7  8  2  0
  7 15  1  0
  8  9  1  0
  9 10  2  0
  9 14  1  0
 10 11  1  0
 10 32  1  0
 11 12  2  0
 11 33  1  0
 12 13  1  0
 12 34  1  0
 13 14  2  0
 13 35  1  0
 14 36  1  0
 15 16  1  0
 15 37  1  1
 15 38  1  0
 16 17  1  0
 16 30  1  6
 16 54  1  0
 17 18  1  0
 17 39  1  6
 17 40  1  0
 18 19  1  0
 18 23  2  0
 19 20  2  0
 19 41  1  0
 20 21  1  0
 20 42  1  0
 21 22  2  0
 21 24  1  0
 22 23  1  0
 22 43  1  0
 23 44  1  0
 24 25  1  0
 24 45  1  1
 24 46  1  0
 25 26  1  0
 25 27  1  0
 25 47  1  6
 26 48  1  0
 27 49  1  6
 27 50  1  0
 27 51  1  0
 28 29  1  0
 28 52  1  0
 29 53  1  0
M  CHG  1  16   1
M  END
>  <s_epik_cmdline>  (43) 
J2VwaWtfcHl0aG9uJywgJy1waCcsICc3LjAwMDAwMCcsICctcGh0JywgJzIuMDAwMDAwJywgJy1tcycsICcxNicsICctdG4nLCAnOCcsICctbWEnLCAnMjAwJywgJy1pbWFlJywgJzxpbmZpbGUubWFlPicsICctb21hZScsICc8b3V0ZmlsZS5tYWU+Jw==

>  <s_epik_input>  (43) 
W2NIXTFbY0hdW2NIXVtjSF1bY0hdYzEtYzJjKG9jKGMyMylbY0hdW2NIXWMoRilbY0hdMylbQ0gyXVtOSF1bQ0gyXWM0W2NIXVtjSF1jKFtjSF1bY0hdNClbQ0gyXVtDQEBIXShbT0hdKVtDSDNd

>  <s_i_glide_gridfile>  (43) 
ATP-Grid

>  <s_lp_Force_Field>  (43) 
OPLS_2005

>  <s_lp_Variant>  (43) 
m_270004bbb____15722580____21435080-2

>  <s_lp_label>  (43) 
1350_sdstereoexpander_2_neutralizer_1_epik_1_stereoizer_1

>  <s_m_source_file>  (43) 
ATP-VSW-LIGPREP-002-in.maegz

>  <s_sd_BIOSOLVEIT.INFINISEE\_QUERY\_NAME>  (43) 
Ref-Lig

>  <s_sd_BIOSOLVEIT.INFINISEE\_QUERY\_SMILES>  (43) 
S(c1nc2c(cc1C[NH2+]Cc3ccc(cc3)C[NH+](C)C)cccc2)Cc4ccccc4

>  <s_sd_BIOSOLVEIT.INFINISEE\_REACTION\_NAME>  (43) 
m_270004bbb

>  <s_sd_BIOSOLVEIT.INFINISEE\_REAGENT1\_SMILES>  (43) 
[R1*]NCC=1Oc2c(cc(F)cc2)C1c3ccccc3

>  <s_sd_BIOSOLVEIT.INFINISEE\_REAGENT2\_SMILES>  (43) 
[R1*]Cc1ccc(cc1)CC(O)C

>  <s_sd_BIOSOLVEIT.INFINISEE\_SPACE>  (43) 
REALSpace_44bn_2023-08

>  <s_vsw_compound_code>  (43) 
43170

>  <s_vsw_variant>  (43) 
43170-2

>  <r_epik_Charging_Adjusted_Penalty>  (43) 
0.053392174155867098

>  <r_epik_Ionization_Penalty>  (43) 
0.026700000000000002

>  <r_epik_Ionization_Penalty_Charging>  (43) 
0.026700000000000002

>  <r_epik_Ionization_Penalty_Neutral>  (43) 
0

>  <r_epik_State_Penalty>  (43) 
0.026700000000000002

>  <r_i_docking_score>  (43) 
-6.2931884913473199

>  <r_i_glide_ecoul>  (43) 
-12.5337991714478

>  <r_i_glide_eff_state_penalty>  (43) 
0.026700000000000002

>  <r_i_glide_einternal>  (43) 
3.58681321144104

>  <r_i_glide_emodel>  (43) 
-71.711513416561203

>  <r_i_glide_energy>  (43) 
-48.056385993957498

>  <r_i_glide_erotb>  (43) 
0.89549712765026701

>  <r_i_glide_esite>  (43) 
-0.10000000000000001

>  <r_i_glide_evdw>  (43) 
-35.522586822509801

>  <r_i_glide_gscore>  (43) 
-6.3198884913473199

>  <r_i_glide_hbond>  (43) 
-0.36895635862994602

>  <r_i_glide_ligand_efficiency>  (43) 
-0.21700649970163199

>  <r_i_glide_ligand_efficiency_ln>  (43) 
-1.44098058302746

>  <r_i_glide_ligand_efficiency_sa>  (43) 
-0.66671271956817502

>  <r_i_glide_lipo>  (43) 
-2.0263580051683601

>  <r_i_glide_metal>  (43) 
-0

>  <r_i_glide_rewards>  (43) 
-1.06387203835663

>  <r_lp_Energy>  (43) 
10.844706

>  <r_qp_ACxDN^.5/SA>  (43) 
0.0079141999999999997

>  <r_qp_CIQPlogS>  (43) 
-5.7560000000000002

>  <r_qp_EA(eV)>  (43) 
0.64800000000000002

>  <r_qp_FISA>  (43) 
65.073999999999998

>  <r_qp_FOSA>  (43) 
187.249

>  <r_qp_IP(eV)>  (43) 
8.9039999999999999

>  <r_qp_Jm>  (43) 
0.013007297173533499

>  <r_qp_PISA>  (43) 
361.98200000000003

>  <r_qp_PSA>  (43) 
43.585999999999999

>  <r_qp_PercentHumanOralAbsorption>  (43) 
100

>  <r_qp_QPPCaco>  (43) 
596.63

>  <r_qp_QPPMDCK>  (43) 
565.60400000000004

>  <r_qp_QPlogBB>  (43) 
0.035000000000000003

>  <r_qp_QPlogHERG>  (43) 
-6.6319999999999997

>  <r_qp_QPlogKhsa>  (43) 
0.85399999999999998

>  <r_qp_QPlogKp>  (43) 
-2.8340000000000001

>  <r_qp_QPlogPC16>  (43) 
12.734999999999999

>  <r_qp_QPlogPo/w>  (43) 
4.8470000000000004

>  <r_qp_QPlogPoct>  (43) 
18.806999999999999

>  <r_qp_QPlogPw>  (43) 
9.2609999999999992

>  <r_qp_QPlogS>  (43) 
-4.6420000000000003

>  <r_qp_QPpolrz>  (43) 
41.741

>  <r_qp_SASA>  (43) 
661.16800000000001

>  <r_qp_SAamideO>  (43) 
0

>  <r_qp_SAfluorine>  (43) 
46.863999999999997

>  <r_qp_WPSA>  (43) 
46.863999999999997

>  <r_qp_accptHB>  (43) 
3.7000000000000002

>  <r_qp_dip^2/V>  (43) 
0.0025503000000000001

>  <r_qp_dipole>  (43) 
1.766

>  <r_qp_donorHB>  (43) 
2

>  <r_qp_glob>  (43) 
0.83637790000000001

>  <r_qp_mol_MW>  (43) 
389.46800000000002

>  <r_qp_volume>  (43) 
1222.713

>  <r_sd_BIOSOLVEIT.INFINISEE\_FTREES\_SIMILARITY>  (43) 
0.90900000000000003

>  <r_sd_BIOSOLVEIT.LOGP>  (43) 
4.4257999999999997

>  <r_sd_BIOSOLVEIT.MOLECULAR\_WEIGHT>  (43) 
390.476

>  <r_sd_BIOSOLVEIT.TPSA>  (43) 
49.979999999999997

>  <i_epik_Tot_Q>  (43) 
1

>  <i_epik_Tot_abs_Q>  (43) 
1

>  <i_f3d_flags>  (43) 
0

>  <i_i_glide_confnum>  (43) 
8

>  <i_i_glide_lignum>  (43) 
472

>  <i_i_glide_posenum>  (43) 
13

>  <i_i_glide_rotatable_bonds>  (43) 
8

>  <i_lp_mmshare_version>  (43) 
65135

>  <i_m_ct_format>  (43) 
2

>  <i_m_source_file_index>  (43) 
1350

>  <i_qp_#NandO>  (43) 
3

>  <i_qp_#acid>  (43) 
0

>  <i_qp_#amide>  (43) 
0

>  <i_qp_#amidine>  (43) 
0

>  <i_qp_#amine>  (43) 
1

>  <i_qp_#in34>  (43) 
0

>  <i_qp_#in56>  (43) 
21

>  <i_qp_#metab>  (43) 
6

>  <i_qp_#nonHatm>  (43) 
29

>  <i_qp_#noncon>  (43) 
0

>  <i_qp_#ringatoms>  (43) 
21

>  <i_qp_#rotor>  (43) 
7

>  <i_qp_#rtvFG>  (43) 
0

>  <i_qp_#stars>  (43) 
0

>  <i_qp_CNS>  (43) 
1

>  <i_qp_HumanOralAbsorption>  (43) 
3

>  <i_qp_RuleOfFive>  (43) 
0

>  <i_qp_RuleOfThree>  (43) 
0

>  <i_sd_BIOSOLVEIT.INFINISEE\_REAGENT1\_NAME>  (43) 
15722580

>  <i_sd_BIOSOLVEIT.INFINISEE\_REAGENT2\_NAME>  (43) 
21435080

>  <i_sd_BIOSOLVEIT.INFINISEE\_RESULT\_RANK>  (43) 
49582

>  <i_sd_version>  (43) 
0

>  <b_lp_Chiralities_Consistent>  (43) 
1

>  <b_sd_chiral_flag>  (43) 
0

>  <acquisition_id>  (43) 
ATP-ACQ-0043

>  <canonical_id>  (43) 
ATP-HTVS-DDBB6FEB6103

>  <compound_code>  (43) 
43170

>  <title>  (43) 
m_270004bbb____15722580____21435080

>  <variant>  (43) 
43170-2

>  <selection_arm>  (43) 
exploitation

>  <priority>  (43) 
P1

>  <wave>  (43) 
2

>  <source_file>  (43) 
运行/运行/ATP-VSW/ATP-VSW-DOCK_HTVS_1-002_lib.maegz

>  <canonical_smiles>  (43) 
C[C@H](O)Cc1ccc(C[NH2+]Cc2oc3ccc(F)cc3c2-c2ccccc2)cc1

$$$$
ATP-ACQ-0044
     RDKit          3D

 51 53  0  0  0  0  0  0  0  0999 V2000
  197.1489  185.6974  158.8967 S   0  0  0  0  0  0  0  0  0  0  0  0
  195.6637  185.2040  159.7030 C   0  0  0  0  0  0  0  0  0  0  0  0
  195.3225  183.9360  159.4697 N   0  0  0  0  0  0  0  0  0  0  0  0
  196.2686  183.2748  158.6742 C   0  0  0  0  0  0  0  0  0  0  0  0
  197.3354  184.0581  158.3409 C   0  0  0  0  0  0  0  0  0  0  0  0
  196.0288  181.8370  158.3085 C   0  0  1  0  0  0  0  0  0  0  0  0
  195.9385  181.6074  156.8543 N   0  0  1  0  0  0  0  0  0  0  0  0
  197.1729  181.9407  156.1144 C   0  0  1  0  0  0  0  0  0  0  0  0
  197.1015  181.4978  154.6673 C   0  0  0  0  0  0  0  0  0  0  0  0
  197.0143  182.4263  153.5958 C   0  0  0  0  0  0  0  0  0  0  0  0
  196.9817  181.9353  152.2685 C   0  0  0  0  0  0  0  0  0  0  0  0
  197.0313  180.5513  152.0156 C   0  0  0  0  0  0  0  0  0  0  0  0
  196.9976  180.0909  150.7379 F   0  0  0  0  0  0  0  0  0  0  0  0
  197.1155  179.6440  153.0912 C   0  0  0  0  0  0  0  0  0  0  0  0
  197.1484  180.1153  154.4145 C   0  0  0  0  0  0  0  0  0  0  0  0
  196.9640  183.9408  153.7977 C   0  0  1  0  0  0  0  0  0  0  0  0
  198.2820  184.5609  153.9707 N   0  0  0  0  0  0  0  0  0  0  0  0
  198.1140  185.9713  154.2966 C   0  0  2  0  0  0  0  0  0  0  0  0
  199.0672  184.4806  152.7420 C   0  0  2  0  0  0  0  0  0  0  0  0
  194.9247  186.1511  160.5168 C   0  0  0  0  0  0  0  0  0  0  0  0
  193.6086  185.8478  160.9187 C   0  0  0  0  0  0  0  0  0  0  0  0
  192.8900  186.7430  161.7291 C   0  0  0  0  0  0  0  0  0  0  0  0
  193.4713  187.9625  162.1253 C   0  0  0  0  0  0  0  0  0  0  0  0
  194.7717  188.2850  161.6567 C   0  0  0  0  0  0  0  0  0  0  0  0
  195.5079  187.3700  160.9030 C   0  0  0  0  0  0  0  0  0  0  0  0
  192.6948  188.9237  163.0045 C   0  0  1  0  0  0  0  0  0  0  0  0
  193.5117  189.7857  163.6104 F   0  0  0  0  0  0  0  0  0  0  0  0
  191.8125  189.5961  162.2644 F   0  0  0  0  0  0  0  0  0  0  0  0
  192.0436  188.2347  163.9404 F   0  0  0  0  0  0  0  0  0  0  0  0
  195.7536  180.6160  156.7988 H   0  0  0  0  0  0  0  0  0  0  0  0
  198.1960  183.8122  157.7523 H   0  0  0  0  0  0  0  0  0  0  0  0
  196.8094  181.1964  158.7173 H   0  0  0  0  0  0  0  0  0  0  0  0
  195.1039  181.4685  158.7403 H   0  0  0  0  0  0  0  0  0  0  0  0
  197.3555  183.0203  156.1722 H   0  0  0  0  0  0  0  0  0  0  0  0
  198.0460  181.4742  156.5739 H   0  0  0  0  0  0  0  0  0  0  0  0
  196.9326  182.6293  151.4400 H   0  0  0  0  0  0  0  0  0  0  0  0
  197.1555  178.5857  152.8817 H   0  0  0  0  0  0  0  0  0  0  0  0
  197.2150  179.4066  155.2284 H   0  0  0  0  0  0  0  0  0  0  0  0
  196.4429  184.3903  152.9580 H   0  0  0  0  0  0  0  0  0  0  0  0
  196.3426  184.1819  154.6609 H   0  0  0  0  0  0  0  0  0  0  0  0
  199.0778  186.4692  154.4243 H   0  0  0  0  0  0  0  0  0  0  0  0
  197.5543  186.1000  155.2246 H   0  0  0  0  0  0  0  0  0  0  0  0
  197.5771  186.4876  153.5004 H   0  0  0  0  0  0  0  0  0  0  0  0
  200.0370  184.9697  152.8588 H   0  0  0  0  0  0  0  0  0  0  0  0
  198.5484  184.9569  151.9081 H   0  0  0  0  0  0  0  0  0  0  0  0
  199.2683  183.4451  152.4692 H   0  0  0  0  0  0  0  0  0  0  0  0
  193.1463  184.9273  160.5981 H   0  0  0  0  0  0  0  0  0  0  0  0
  191.8855  186.4956  162.0509 H   0  0  0  0  0  0  0  0  0  0  0  0
  195.2375  189.2188  161.9315 H   0  0  0  0  0  0  0  0  0  0  0  0
  196.5246  187.6271  160.6309 H   0  0  0  0  0  0  0  0  0  0  0  0
  195.1517  182.1091  156.4519 H   0  0  0  0  0  0  0  0  0  0  0  0
  1  2  1  0
  1  5  1  0
  2  3  2  0
  2 20  1  0
  3  4  1  0
  4  5  2  0
  4  6  1  0
  5 31  1  0
  6  7  1  0
  6 32  1  1
  6 33  1  0
  7  8  1  0
  7 30  1  1
  7 51  1  0
  8  9  1  0
  8 34  1  6
  8 35  1  0
  9 10  2  0
  9 15  1  0
 10 11  1  0
 10 16  1  0
 11 12  2  0
 11 36  1  0
 12 13  1  0
 12 14  1  0
 14 15  2  0
 14 37  1  0
 15 38  1  0
 16 17  1  0
 16 39  1  6
 16 40  1  0
 17 18  1  0
 17 19  1  0
 18 41  1  1
 18 42  1  0
 18 43  1  0
 19 44  1  1
 19 45  1  0
 19 46  1  0
 20 21  1  0
 20 25  2  0
 21 22  2  0
 21 47  1  0
 22 23  1  0
 22 48  1  0
 23 24  2  0
 23 26  1  0
 24 25  1  0
 24 49  1  0
 25 50  1  0
 26 27  1  1
 26 28  1  0
 26 29  1  0
M  CHG  1   7   1
M  END
>  <s_epik_cmdline>  (44) 
J2VwaWtfcHl0aG9uJywgJy1waCcsICc3LjAwMDAwMCcsICctcGh0JywgJzIuMDAwMDAwJywgJy1tcycsICcxNicsICctdG4nLCAnOCcsICctbWEnLCAnMjAwJywgJy1pbWFlJywgJzxpbmZpbGUubWFlPicsICctb21hZScsICc8b3V0ZmlsZS5tYWU+Jw==

>  <s_epik_input>  (44) 
W2NIXTFbY0hdYyhDKEYpKEYpRilbY0hdW2NIXWMxLWMyc1tjSF1jKG4yKVtDSDJdW05IXVtDSDJdYzNjKFtDSDJdTihbQ0gzXSlbQ0gzXSlbY0hdYyhGKVtjSF1bY0hdMw==

>  <s_i_glide_gridfile>  (44) 
ATP-Grid

>  <s_lp_Force_Field>  (44) 
OPLS_2005

>  <s_lp_Variant>  (44) 
m_270004bbb____24792668____7548982-3

>  <s_lp_label>  (44) 
877_sdstereoexpander_1_neutralizer_1_epik_3_stereoizer_1

>  <s_m_source_file>  (44) 
ATP-VSW-LIGPREP-001-in.maegz

>  <s_sd_BIOSOLVEIT.INFINISEE\_QUERY\_NAME>  (44) 
Ref-Lig

>  <s_sd_BIOSOLVEIT.INFINISEE\_QUERY\_SMILES>  (44) 
S(c1nc2c(cc1C[NH2+]Cc3ccc(cc3)C[NH+](C)C)cccc2)Cc4ccccc4

>  <s_sd_BIOSOLVEIT.INFINISEE\_REACTION\_NAME>  (44) 
m_270004bbb

>  <s_sd_BIOSOLVEIT.INFINISEE\_REAGENT1\_SMILES>  (44) 
[R1*]NCc1c(cc(F)cc1)CN(C)C

>  <s_sd_BIOSOLVEIT.INFINISEE\_REAGENT2\_SMILES>  (44) 
[R1*]CC=1N=C(SC1)c2ccc(cc2)C(F)(F)F

>  <s_sd_BIOSOLVEIT.INFINISEE\_SPACE>  (44) 
REALSpace_44bn_2023-08

>  <s_vsw_compound_code>  (44) 
28033

>  <s_vsw_variant>  (44) 
28033-3

>  <r_epik_Charging_Adjusted_Penalty>  (44) 
1.6057944718811299

>  <r_epik_Ionization_Penalty>  (44) 
1.4123000000000001

>  <r_epik_Ionization_Penalty_Charging>  (44) 
0.13980000000000001

>  <r_epik_Ionization_Penalty_Neutral>  (44) 
1.2725

>  <r_epik_State_Penalty>  (44) 
1.4659

>  <r_i_docking_score>  (44) 
-4.0707600408721003

>  <r_i_glide_ecoul>  (44) 
-11.1243295669556

>  <r_i_glide_eff_state_penalty>  (44) 
1.4659

>  <r_i_glide_einternal>  (44) 
2.4733195304870601

>  <r_i_glide_emodel>  (44) 
-63.557387860211598

>  <r_i_glide_energy>  (44) 
-42.449698448181202

>  <r_i_glide_erotb>  (44) 
0.66028715856277198

>  <r_i_glide_esite>  (44) 
-0.155772742972451

>  <r_i_glide_evdw>  (44) 
-31.3253688812256

>  <r_i_glide_gscore>  (44) 
-5.5366600408720998

>  <r_i_glide_hbond>  (44) 
-0.37267597570811201

>  <r_i_glide_ligand_efficiency>  (44) 
-0.14037103589214101

>  <r_i_glide_ligand_efficiency_ln>  (44) 
-0.93210082379161996

>  <r_i_glide_ligand_efficiency_sa>  (44) 
-0.43126429492631302

>  <r_i_glide_lipo>  (44) 
-1.20308285459699

>  <r_i_glide_metal>  (44) 
-0

>  <r_i_glide_rewards>  (44) 
-1.2304977470527001

>  <r_lp_Energy>  (44) 
14.575437000000001

>  <r_qp_ACxDN^.5/SA>  (44) 
0.0076023999999999996

>  <r_qp_CIQPlogS>  (44) 
-4.7530000000000001

>  <r_qp_EA(eV)>  (44) 
1.5409999999999999

>  <r_qp_FISA>  (44) 
14.287000000000001

>  <r_qp_FOSA>  (44) 
176.364

>  <r_qp_IP(eV)>  (44) 
9.3759999999999994

>  <r_qp_Jm>  (44) 
0.0020181689023592098

>  <r_qp_PISA>  (44) 
260.20499999999998

>  <r_qp_PSA>  (44) 
25.215

>  <r_qp_PercentHumanOralAbsorption>  (44) 
100

>  <r_qp_QPPCaco>  (44) 
451.04599999999999

>  <r_qp_QPPMDCK>  (44) 
3478.5900000000001

>  <r_qp_QPlogBB>  (44) 
1.3720000000000001

>  <r_qp_QPlogHERG>  (44) 
-6.7649999999999997

>  <r_qp_QPlogKhsa>  (44) 
0.73399999999999999

>  <r_qp_QPlogKp>  (44) 
-4.415

>  <r_qp_QPlogPC16>  (44) 
11.012

>  <r_qp_QPlogPo/w>  (44) 
4.8470000000000004

>  <r_qp_QPlogPoct>  (44) 
18.579999999999998

>  <r_qp_QPlogPw>  (44) 
8.3070000000000004

>  <r_qp_QPlogS>  (44) 
-3.907

>  <r_qp_QPpolrz>  (44) 
41.606999999999999

>  <r_qp_SASA>  (44) 
657.69000000000005

>  <r_qp_SAamideO>  (44) 
0

>  <r_qp_SAfluorine>  (44) 
164.53399999999999

>  <r_qp_WPSA>  (44) 
206.83500000000001

>  <r_qp_accptHB>  (44) 
5

>  <r_qp_dip^2/V>  (44) 
0.012290799999999999

>  <r_qp_dipole>  (44) 
3.8839999999999999

>  <r_qp_donorHB>  (44) 
1

>  <r_qp_glob>  (44) 
0.84304599999999996

>  <r_qp_mol_MW>  (44) 
423.471

>  <r_qp_volume>  (44) 
1227.6120000000001

>  <r_sd_BIOSOLVEIT.INFINISEE\_FTREES\_SIMILARITY>  (44) 
0.92000000000000004

>  <r_sd_BIOSOLVEIT.LOGP>  (44) 
2.8761000000000001

>  <r_sd_BIOSOLVEIT.MOLECULAR\_WEIGHT>  (44) 
425.49099999999999

>  <r_sd_BIOSOLVEIT.TPSA>  (44) 
33.939999999999998

>  <i_epik_Tot_Q>  (44) 
1

>  <i_epik_Tot_abs_Q>  (44) 
1

>  <i_f3d_flags>  (44) 
0

>  <i_i_glide_confnum>  (44) 
5

>  <i_i_glide_lignum>  (44) 
151

>  <i_i_glide_posenum>  (44) 
16

>  <i_i_glide_rotatable_bonds>  (44) 
8

>  <i_lp_mmshare_version>  (44) 
65135

>  <i_m_ct_format>  (44) 
2

>  <i_m_source_file_index>  (44) 
877

>  <i_qp_#NandO>  (44) 
3

>  <i_qp_#acid>  (44) 
0

>  <i_qp_#amide>  (44) 
0

>  <i_qp_#amidine>  (44) 
0

>  <i_qp_#amine>  (44) 
2

>  <i_qp_#in34>  (44) 
0

>  <i_qp_#in56>  (44) 
17

>  <i_qp_#metab>  (44) 
6

>  <i_qp_#nonHatm>  (44) 
29

>  <i_qp_#noncon>  (44) 
0

>  <i_qp_#ringatoms>  (44) 
17

>  <i_qp_#rotor>  (44) 
6

>  <i_qp_#rtvFG>  (44) 
0

>  <i_qp_#stars>  (44) 
2

>  <i_qp_CNS>  (44) 
2

>  <i_qp_HumanOralAbsorption>  (44) 
3

>  <i_qp_RuleOfFive>  (44) 
0

>  <i_qp_RuleOfThree>  (44) 
0

>  <i_sd_BIOSOLVEIT.INFINISEE\_REAGENT1\_NAME>  (44) 
24792668

>  <i_sd_BIOSOLVEIT.INFINISEE\_REAGENT2\_NAME>  (44) 
7548982

>  <i_sd_BIOSOLVEIT.INFINISEE\_RESULT\_RANK>  (44) 
16976

>  <i_sd_version>  (44) 
0

>  <b_lp_Chiralities_Consistent>  (44) 
1

>  <b_sd_chiral_flag>  (44) 
0

>  <acquisition_id>  (44) 
ATP-ACQ-0044

>  <canonical_id>  (44) 
ATP-HTVS-CD22DC9E9474

>  <compound_code>  (44) 
28033

>  <title>  (44) 
m_270004bbb____24792668____7548982

>  <variant>  (44) 
28033-3

>  <selection_arm>  (44) 
descriptor_diversity

>  <priority>  (44) 
P1

>  <wave>  (44) 
2

>  <source_file>  (44) 
运行/运行/ATP-VSW/ATP-VSW-DOCK_HTVS_1-001_lib/ATP-VSW-DOCK_HTVS_1-001_lib

>  <canonical_smiles>  (44) 
CN(C)Cc1cc(F)ccc1C[NH2+]Cc1csc(-c2ccc(C(F)(F)F)cc2)n1

$$$$
ATP-ACQ-0045
     RDKit          3D

 64 67  0  0  0  0  0  0  0  0999 V2000
  193.7047  182.5026  158.5566 F   0  0  0  0  0  0  0  0  0  0  0  0
  194.6318  183.3734  159.0267 C   0  0  0  0  0  0  0  0  0  0  0  0
  196.0070  183.0949  158.8900 C   0  0  0  0  0  0  0  0  0  0  0  0
  196.9630  184.0142  159.3670 C   0  0  0  0  0  0  0  0  0  0  0  0
  196.5495  185.2163  159.9719 C   0  0  0  0  0  0  0  0  0  0  0  0
  195.1754  185.4960  160.1107 C   0  0  0  0  0  0  0  0  0  0  0  0
  194.2224  184.5647  159.6528 C   0  0  0  0  0  0  0  0  0  0  0  0
  194.7218  186.7996  160.7288 C   0  0  1  0  0  0  0  0  0  0  0  0
  194.7460  186.7716  162.1338 O   0  0  0  0  0  0  0  0  0  0  0  0
  196.4747  181.8190  158.2250 C   0  0  1  0  0  0  0  0  0  0  0  0
  196.8343  182.0090  156.8227 N   0  0  0  0  0  0  0  0  0  0  0  0
  197.6942  181.0969  156.1801 C   0  0  0  0  0  0  0  0  0  0  0  0
  198.5975  180.4143  156.9306 N   0  0  0  0  0  0  0  0  0  0  0  0
  199.4172  179.5239  156.3183 C   0  0  0  0  0  0  0  0  0  0  0  0
  199.3497  179.3275  154.9062 C   0  0  0  0  0  0  0  0  0  0  0  0
  198.4552  180.0205  154.1586 N   0  0  0  0  0  0  0  0  0  0  0  0
  197.6241  180.8873  154.7800 C   0  0  0  0  0  0  0  0  0  0  0  0
  196.6669  181.5424  153.9955 N   0  0  0  0  0  0  0  0  0  0  0  0
  196.5950  181.2714  152.5658 C   0  0  1  0  0  0  0  0  0  0  0  0
  196.2614  179.7958  152.2038 C   0  0  1  0  0  0  0  0  0  0  0  0
  196.8470  179.4286  150.8580 C   0  0  0  0  0  0  0  0  0  0  0  0
  198.2008  179.0444  150.7343 C   0  0  0  0  0  0  0  0  0  0  0  0
  198.7147  178.6299  149.4880 C   0  0  0  0  0  0  0  0  0  0  0  0
  197.8762  178.6160  148.3531 C   0  0  0  0  0  0  0  0  0  0  0  0
  196.5328  179.0293  148.4753 C   0  0  0  0  0  0  0  0  0  0  0  0
  196.0291  179.4455  149.7190 C   0  0  0  0  0  0  0  0  0  0  0  0
  198.4017  178.1668  147.0041 C   0  0  1  0  0  0  0  0  0  0  0  0
  198.7796  179.2733  146.1281 N   0  0  0  0  0  0  0  0  0  0  0  0
  199.0786  178.7374  144.8081 C   0  0  2  0  0  0  0  0  0  0  0  0
  199.9677  179.9573  146.6262 C   0  0  2  0  0  0  0  0  0  0  0  0
  200.2126  178.4055  154.2895 C   0  0  0  0  0  0  0  0  0  0  0  0
  201.1458  177.6694  155.0312 C   0  0  0  0  0  0  0  0  0  0  0  0
  201.2118  177.8536  156.4290 C   0  0  0  0  0  0  0  0  0  0  0  0
  200.3500  178.7716  157.0611 C   0  0  0  0  0  0  0  0  0  0  0  0
  198.0151  183.7894  159.2631 H   0  0  0  0  0  0  0  0  0  0  0  0
  197.2877  185.9203  160.3268 H   0  0  0  0  0  0  0  0  0  0  0  0
  193.1683  184.7725  159.7462 H   0  0  0  0  0  0  0  0  0  0  0  0
  195.3523  187.6151  160.3711 H   0  0  0  0  0  0  0  0  0  0  0  0
  193.7024  187.0328  160.4234 H   0  0  0  0  0  0  0  0  0  0  0  0
  195.3633  187.4285  162.4317 H   0  0  0  0  0  0  0  0  0  0  0  0
  197.3072  181.4544  158.8170 H   0  0  0  0  0  0  0  0  0  0  0  0
  195.6987  181.0600  158.3239 H   0  0  0  0  0  0  0  0  0  0  0  0
  196.0698  182.3712  156.2716 H   0  0  0  0  0  0  0  0  0  0  0  0
  196.2655  182.4057  154.3463 H   0  0  0  0  0  0  0  0  0  0  0  0
  195.8424  181.9323  152.1371 H   0  0  0  0  0  0  0  0  0  0  0  0
  197.5428  181.5955  152.1412 H   0  0  0  0  0  0  0  0  0  0  0  0
  196.6594  179.0534  152.9035 H   0  0  0  0  0  0  0  0  0  0  0  0
  195.1754  179.6425  152.1885 H   0  0  0  0  0  0  0  0  0  0  0  0
  198.8500  179.0535  151.5963 H   0  0  0  0  0  0  0  0  0  0  0  0
  199.7528  178.3302  149.4002 H   0  0  0  0  0  0  0  0  0  0  0  0
  195.8808  179.0223  147.6135 H   0  0  0  0  0  0  0  0  0  0  0  0
  195.0018  179.7518  149.8163 H   0  0  0  0  0  0  0  0  0  0  0  0
  199.2421  177.4881  147.1476 H   0  0  0  0  0  0  0  0  0  0  0  0
  197.6103  177.5842  146.5286 H   0  0  0  0  0  0  0  0  0  0  0  0
  199.3590  179.5321  144.1157 H   0  0  0  0  0  0  0  0  0  0  0  0
  198.2013  178.2376  144.4004 H   0  0  0  0  0  0  0  0  0  0  0  0
  199.8936  178.0128  144.8381 H   0  0  0  0  0  0  0  0  0  0  0  0
  200.2750  180.7440  145.9359 H   0  0  0  0  0  0  0  0  0  0  0  0
  200.8029  179.2654  146.7440 H   0  0  0  0  0  0  0  0  0  0  0  0
  199.7747  180.4291  147.5899 H   0  0  0  0  0  0  0  0  0  0  0  0
  200.1483  178.2582  153.2253 H   0  0  0  0  0  0  0  0  0  0  0  0
  201.8122  176.9844  154.5333 H   0  0  0  0  0  0  0  0  0  0  0  0
  201.9507  177.3070  157.0003 H   0  0  0  0  0  0  0  0  0  0  0  0
  200.4118  178.8944  158.1318 H   0  0  0  0  0  0  0  0  0  0  0  0
  1  2  1  0
  2  3  2  0
  2  7  1  0
  3  4  1  0
  3 10  1  0
  4  5  2  0
  4 35  1  0
  5  6  1  0
  5 36  1  0
  6  7  2  0
  6  8  1  0
  7 37  1  0
  8  9  1  0
  8 38  1  6
  8 39  1  0
  9 40  1  0
 10 11  1  0
 10 41  1  1
 10 42  1  0
 11 12  1  0
 11 43  1  0
 12 13  2  0
 12 17  1  0
 13 14  1  0
 14 15  1  0
 14 34  2  0
 15 16  1  0
 15 31  2  0
 16 17  2  0
 17 18  1  0
 18 19  1  0
 18 44  1  0
 19 20  1  0
 19 45  1  6
 19 46  1  0
 20 21  1  0
 20 47  1  1
 20 48  1  0
 21 22  1  0
 21 26  2  0
 22 23  2  0
 22 49  1  0
 23 24  1  0
 23 50  1  0
 24 25  2  0
 24 27  1  0
 25 26  1  0
 25 51  1  0
 26 52  1  0
 27 28  1  0
 27 53  1  1
 27 54  1  0
 28 29  1  0
 28 30  1  0
 29 55  1  6
 29 56  1  0
 29 57  1  0
 30 58  1  6
 30 59  1  0
 30 60  1  0
 31 32  1  0
 31 61  1  0
 32 33  2  0
 32 62  1  0
 33 34  1  0
 33 63  1  0
 34 64  1  0
M  END
>  <s_epik_cmdline>  (45) 
J2VwaWtfcHl0aG9uJywgJy1waCcsICc3LjAwMDAwMCcsICctcGh0JywgJzIuMDAwMDAwJywgJy1tcycsICcxNicsICctdG4nLCAnOCcsICctbWEnLCAnMjAwJywgJy1pbWFlJywgJzxpbmZpbGUubWFlPicsICctb21hZScsICc8b3V0ZmlsZS5tYWU+Jw==

>  <s_epik_input>  (45) 
W09IXVtDSDJdYyhbY0hdMSlbY0hdW2NIXWMoYzFGKVtDSDJdW05IXWMobjIpYyhuYyhjMjMpW2NIXVtjSF1bY0hdW2NIXTMpW05IXVtDSDJdW0NIMl1jNFtjSF1bY0hdYyhbY0hdW2NIXTQpW0NIMl1OKFtDSDNdKVtDSDNd

>  <s_i_glide_gridfile>  (45) 
ATP-Grid

>  <s_lp_Force_Field>  (45) 
OPLS_2005

>  <s_lp_Variant>  (45) 
m_282030aaa____21893406____23157418____21967972-2

>  <s_lp_label>  (45) 
962_sdstereoexpander_1_neutralizer_1_epik_2_stereoizer_1

>  <s_m_source_file>  (45) 
ATP-VSW-LIGPREP-001-in.maegz

>  <s_sd_BIOSOLVEIT.INFINISEE\_QUERY\_NAME>  (45) 
Ref-Lig

>  <s_sd_BIOSOLVEIT.INFINISEE\_QUERY\_SMILES>  (45) 
S(c1nc2c(cc1C[NH2+]Cc3ccc(cc3)C[NH+](C)C)cccc2)Cc4ccccc4

>  <s_sd_BIOSOLVEIT.INFINISEE\_REACTION\_NAME>  (45) 
m_282030aaa

>  <s_sd_BIOSOLVEIT.INFINISEE\_REAGENT1\_SMILES>  (45) 
[R1*]NCc1c(F)cc(cc1)CO

>  <s_sd_BIOSOLVEIT.INFINISEE\_REAGENT2\_SMILES>  (45) 
[R1*]c1nc2c(nc1[R2*])cccc2

>  <s_sd_BIOSOLVEIT.INFINISEE\_REAGENT3\_SMILES>  (45) 
[R2*]NCCc1ccc(cc1)CN(C)C

>  <s_sd_BIOSOLVEIT.INFINISEE\_SPACE>  (45) 
REALSpace_44bn_2023-08

>  <s_vsw_compound_code>  (45) 
30753

>  <s_vsw_variant>  (45) 
30753-2

>  <r_epik_Charging_Adjusted_Penalty>  (45) 
1.6032092271001199

>  <r_epik_Ionization_Penalty>  (45) 
1.6036999999999999

>  <r_epik_Ionization_Penalty_Charging>  (45) 
0

>  <r_epik_Ionization_Penalty_Neutral>  (45) 
1.6036999999999999

>  <r_epik_State_Penalty>  (45) 
1.6032

>  <r_i_docking_score>  (45) 
-3.55377124897857

>  <r_i_glide_ecoul>  (45) 
-6.7506275177001998

>  <r_i_glide_eff_state_penalty>  (45) 
1.6032

>  <r_i_glide_einternal>  (45) 
6.16349220275879

>  <r_i_glide_emodel>  (45) 
-57.199951296029802

>  <r_i_glide_energy>  (45) 
-45.629880905151403

>  <r_i_glide_erotb>  (45) 
0.85747696127309803

>  <r_i_glide_esite>  (45) 
-0.20107922917394899

>  <r_i_glide_evdw>  (45) 
-38.8792533874512

>  <r_i_glide_gscore>  (45) 
-5.1569712489785697

>  <r_i_glide_hbond>  (45) 
-0.227579214858878

>  <r_i_glide_ligand_efficiency>  (45) 
-0.104522683793487

>  <r_i_glide_ligand_efficiency_ln>  (45) 
-0.78512774880651703

>  <r_i_glide_ligand_efficiency_sa>  (45) 
-0.338612919520553

>  <r_i_glide_lipo>  (45) 
-2.3534948078276199

>  <r_i_glide_metal>  (45) 
-0

>  <r_i_glide_rewards>  (45) 
-0.27573816136363499

>  <r_lp_Energy>  (45) 
26.582381999999999

>  <r_qp_ACxDN^.5/SA>  (45) 
0.0169137

>  <r_qp_CIQPlogS>  (45) 
-5.9969999999999999

>  <r_qp_EA(eV)>  (45) 
0.68700000000000006

>  <r_qp_FISA>  (45) 
76.724999999999994

>  <r_qp_FOSA>  (45) 
245.727

>  <r_qp_IP(eV)>  (45) 
8.0419999999999998

>  <r_qp_Jm>  (45) 
0.46312690084668201

>  <r_qp_PISA>  (45) 
344.48500000000001

>  <r_qp_PSA>  (45) 
68.361000000000004

>  <r_qp_PercentHumanOralAbsorption>  (45) 
100

>  <r_qp_QPPCaco>  (45) 
462.61099999999999

>  <r_qp_QPPMDCK>  (45) 
302.983

>  <r_qp_QPlogBB>  (45) 
-0.32200000000000001

>  <r_qp_QPlogHERG>  (45) 
-5.9269999999999996

>  <r_qp_QPlogKhsa>  (45) 
0.55200000000000005

>  <r_qp_QPlogKp>  (45) 
-2.7269999999999999

>  <r_qp_QPlogPC16>  (45) 
14.505000000000001

>  <r_qp_QPlogPo/w>  (45) 
4.3220000000000001

>  <r_qp_QPlogPoct>  (45) 
23.696999999999999

>  <r_qp_QPlogPw>  (45) 
12.808999999999999

>  <r_qp_QPlogS>  (45) 
-3.27

>  <r_qp_QPpolrz>  (45) 
45.405000000000001

>  <r_qp_SASA>  (45) 
686.11400000000003

>  <r_qp_SAamideO>  (45) 
0

>  <r_qp_SAfluorine>  (45) 
19.177

>  <r_qp_WPSA>  (45) 
19.177

>  <r_qp_accptHB>  (45) 
6.7000000000000002

>  <r_qp_dip^2/V>  (45) 
0.043015699999999997

>  <r_qp_dipole>  (45) 
7.7119999999999997

>  <r_qp_donorHB>  (45) 
3

>  <r_qp_glob>  (45) 
0.87479260000000003

>  <r_qp_mol_MW>  (45) 
459.565

>  <r_qp_volume>  (45) 
1382.626

>  <r_sd_BIOSOLVEIT.INFINISEE\_FTREES\_SIMILARITY>  (45) 
0.91700000000000004

>  <r_sd_BIOSOLVEIT.LOGP>  (45) 
3.1724000000000001

>  <r_sd_BIOSOLVEIT.MOLECULAR\_WEIGHT>  (45) 
460.57400000000001

>  <r_sd_BIOSOLVEIT.TPSA>  (45) 
74.510000000000005

>  <i_epik_Tot_Q>  (45) 
0

>  <i_epik_Tot_abs_Q>  (45) 
0

>  <i_f3d_flags>  (45) 
0

>  <i_i_glide_confnum>  (45) 
10

>  <i_i_glide_lignum>  (45) 
195

>  <i_i_glide_posenum>  (45) 
5

>  <i_i_glide_rotatable_bonds>  (45) 
11

>  <i_lp_mmshare_version>  (45) 
65135

>  <i_m_ct_format>  (45) 
2

>  <i_m_source_file_index>  (45) 
962

>  <i_qp_#NandO>  (45) 
6

>  <i_qp_#acid>  (45) 
0

>  <i_qp_#amide>  (45) 
0

>  <i_qp_#amidine>  (45) 
0

>  <i_qp_#amine>  (45) 
1

>  <i_qp_#in34>  (45) 
0

>  <i_qp_#in56>  (45) 
22

>  <i_qp_#metab>  (45) 
5

>  <i_qp_#nonHatm>  (45) 
34

>  <i_qp_#noncon>  (45) 
0

>  <i_qp_#ringatoms>  (45) 
22

>  <i_qp_#rotor>  (45) 
11

>  <i_qp_#rtvFG>  (45) 
0

>  <i_qp_#stars>  (45) 
0

>  <i_qp_CNS>  (45) 
0

>  <i_qp_HumanOralAbsorption>  (45) 
3

>  <i_qp_RuleOfFive>  (45) 
0

>  <i_qp_RuleOfThree>  (45) 
0

>  <i_sd_BIOSOLVEIT.INFINISEE\_REAGENT1\_NAME>  (45) 
21893406

>  <i_sd_BIOSOLVEIT.INFINISEE\_REAGENT2\_NAME>  (45) 
23157418

>  <i_sd_BIOSOLVEIT.INFINISEE\_REAGENT3\_NAME>  (45) 
21967972

>  <i_sd_BIOSOLVEIT.INFINISEE\_RESULT\_RANK>  (45) 
23397

>  <i_sd_version>  (45) 
0

>  <b_lp_Chiralities_Consistent>  (45) 
1

>  <b_sd_chiral_flag>  (45) 
0

>  <acquisition_id>  (45) 
ATP-ACQ-0045

>  <canonical_id>  (45) 
ATP-HTVS-F15CD1C1F5FF

>  <compound_code>  (45) 
30753

>  <title>  (45) 
m_282030aaa____21893406____23157418____21967972

>  <variant>  (45) 
30753-2

>  <selection_arm>  (45) 
score_calibration

>  <priority>  (45) 
P1

>  <wave>  (45) 
2

>  <source_file>  (45) 
运行/运行/ATP-VSW/ATP-VSW-DOCK_HTVS_1-001_lib/ATP-VSW-DOCK_HTVS_1-001_lib

>  <canonical_smiles>  (45) 
CN(C)Cc1ccc(CCNc2nc3ccccc3nc2NCc2ccc(CO)cc2F)cc1

$$$$
ATP-ACQ-0046
     RDKit          3D

 53 55  0  0  0  0  0  0  0  0999 V2000
  199.8042  177.2875  150.0122 O   0  0  0  0  0  0  0  0  0  0  0  0
  198.7902  178.1578  150.2883 C   0  0  0  0  0  0  0  0  0  0  0  0
  198.6535  178.6928  151.5815 C   0  0  0  0  0  0  0  0  0  0  0  0
  197.6086  179.5966  151.8915 C   0  0  0  0  0  0  0  0  0  0  0  0
  197.4726  180.1549  153.2485 C   0  0  0  0  0  0  0  0  0  0  0  0
  196.8966  181.4298  153.4756 C   0  0  0  0  0  0  0  0  0  0  0  0
  196.7503  181.9845  154.6904 N   0  0  0  0  0  0  0  0  0  0  0  0
  197.1611  181.2780  155.7561 C   0  0  0  0  0  0  0  0  0  0  0  0
  197.7675  180.0142  155.6652 C   0  0  0  0  0  0  0  0  0  0  0  0
  197.9167  179.4499  154.3939 C   0  0  0  0  0  0  0  0  0  0  0  0
  196.9578  181.9459  157.0842 C   0  0  1  0  0  0  0  0  0  0  0  0
  195.5473  181.9059  157.5210 N   0  0  1  0  0  0  0  0  0  0  0  0
  195.3251  182.2275  158.9469 C   0  0  1  0  0  0  0  0  0  0  0  0
  195.7611  183.6171  159.2553 C   0  0  0  0  0  0  0  0  0  0  0  0
  194.8275  184.6711  159.3988 C   0  0  0  0  0  0  0  0  0  0  0  0
  195.2736  185.9912  159.6277 C   0  0  0  0  0  0  0  0  0  0  0  0
  196.6615  186.2701  159.7297 C   0  0  0  0  0  0  0  0  0  0  0  0
  197.5956  185.1945  159.6744 C   0  0  0  0  0  0  0  0  0  0  0  0
  197.1430  183.9022  159.3994 C   0  0  0  0  0  0  0  0  0  0  0  0
  197.1642  187.6989  159.9162 C   0  0  1  0  0  0  0  0  0  0  0  0
  198.1604  188.1752  158.9035 N   0  0  2  0  0  0  0  0  0  0  0  0
  197.5777  188.3018  157.5549 C   0  0  2  0  0  0  0  0  0  0  0  0
  199.4358  187.4037  158.8427 C   0  0  2  0  0  0  0  0  0  0  0  0
  196.7073  179.9529  150.8599 C   0  0  0  0  0  0  0  0  0  0  0  0
  196.8450  179.4260  149.5637 C   0  0  0  0  0  0  0  0  0  0  0  0
  197.8850  178.5231  149.2756 C   0  0  0  0  0  0  0  0  0  0  0  0
  194.9490  182.4285  156.8942 H   0  0  0  0  0  0  0  0  0  0  0  0
  200.3814  177.1373  150.7451 H   0  0  0  0  0  0  0  0  0  0  0  0
  199.3693  178.4095  152.3391 H   0  0  0  0  0  0  0  0  0  0  0  0
  196.5413  182.0378  152.6580 H   0  0  0  0  0  0  0  0  0  0  0  0
  198.0810  179.4762  156.5467 H   0  0  0  0  0  0  0  0  0  0  0  0
  198.3593  178.4660  154.3130 H   0  0  0  0  0  0  0  0  0  0  0  0
  197.6075  181.4601  157.8195 H   0  0  0  0  0  0  0  0  0  0  0  0
  197.2651  182.9751  156.9663 H   0  0  0  0  0  0  0  0  0  0  0  0
  194.2648  182.0967  159.1871 H   0  0  0  0  0  0  0  0  0  0  0  0
  195.8705  181.5227  159.5964 H   0  0  0  0  0  0  0  0  0  0  0  0
  193.7597  184.4617  159.3390 H   0  0  0  0  0  0  0  0  0  0  0  0
  194.5556  186.7726  159.7354 H   0  0  0  0  0  0  0  0  0  0  0  0
  198.6275  185.3180  159.8002 H   0  0  0  0  0  0  0  0  0  0  0  0
  197.8875  183.1383  159.2629 H   0  0  0  0  0  0  0  0  0  0  0  0
  196.3117  188.3750  159.8982 H   0  0  0  0  0  0  0  0  0  0  0  0
  197.5547  187.7883  160.9306 H   0  0  0  0  0  0  0  0  0  0  0  0
  197.2334  187.3372  157.1754 H   0  0  0  0  0  0  0  0  0  0  0  0
  198.3163  188.6911  156.8538 H   0  0  0  0  0  0  0  0  0  0  0  0
  196.7336  188.9919  157.5580 H   0  0  0  0  0  0  0  0  0  0  0  0
  199.2982  186.4416  158.4344 H   0  0  0  0  0  0  0  0  0  0  0  0
  199.8788  187.3224  159.8439 H   0  0  0  0  0  0  0  0  0  0  0  0
  200.1821  187.9048  158.2024 H   0  0  0  0  0  0  0  0  0  0  0  0
  195.8934  180.6356  151.0550 H   0  0  0  0  0  0  0  0  0  0  0  0
  196.1484  179.7097  148.7893 H   0  0  0  0  0  0  0  0  0  0  0  0
  197.9893  178.1144  148.2819 H   0  0  0  0  0  0  0  0  0  0  0  0
  198.4010  189.1024  159.1999 H   0  0  0  0  0  0  0  0  0  0  0  0
  195.3010  180.9020  157.4342 H   0  0  0  0  0  0  0  0  0  0  0  0
  1  2  1  0
  1 28  1  0
  2  3  2  0
  2 26  1  0
  3  4  1  0
  3 29  1  0
  4  5  1  0
  4 24  2  0
  5  6  1  0
  5 10  2  0
  6  7  2  0
  6 30  1  0
  7  8  1  0
  8  9  2  0
  8 11  1  0
  9 10  1  0
  9 31  1  0
 10 32  1  0
 11 12  1  0
 11 33  1  1
 11 34  1  0
 12 13  1  0
 12 27  1  6
 12 53  1  0
 13 14  1  0
 13 35  1  1
 13 36  1  0
 14 15  1  0
 14 19  2  0
 15 16  2  0
 15 37  1  0
 16 17  1  0
 16 38  1  0
 17 18  2  0
 17 20  1  0
 18 19  1  0
 18 39  1  0
 19 40  1  0
 20 21  1  0
 20 41  1  1
 20 42  1  0
 21 22  1  0
 21 23  1  0
 21 52  1  1
 22 43  1  6
 22 44  1  0
 22 45  1  0
 23 46  1  6
 23 47  1  0
 23 48  1  0
 24 25  1  0
 24 49  1  0
 25 26  2  0
 25 50  1  0
 26 51  1  0
M  CHG  2  12   1  21   1
M  END
>  <s_epik_cmdline>  (46) 
J2VwaWtfcHl0aG9uJywgJy1waCcsICc3LjAwMDAwMCcsICctcGh0JywgJzIuMDAwMDAwJywgJy1tcycsICcxNicsICctdG4nLCAnOCcsICctbWEnLCAnMjAwJywgJy1pbWFlJywgJzxpbmZpbGUubWFlPicsICctb21hZScsICc8b3V0ZmlsZS5tYWU+Jw==

>  <s_epik_input>  (46) 
W09IXWMxW2NIXWMoW2NIXVtjSF1bY0hdMSktYzJbY0hdbmMoW2NIXVtjSF0yKVtDSDJdW05IXVtDSDJdYzNbY0hdW2NIXWMoW2NIXVtjSF0zKVtDSDJdTihbQ0gzXSlbQ0gzXQ==

>  <s_i_glide_gridfile>  (46) 
ATP-Grid

>  <s_lp_Force_Field>  (46) 
OPLS_2005

>  <s_lp_Variant>  (46) 
WXDL_15E____QS5063____LN00174727____BT2076-1

>  <s_lp_label>  (46) 
627_sdstereoexpander_1_neutralizer_1_epik_1_stereoizer_1

>  <s_m_source_file>  (46) 
ATP-VSW-LIGPREP-001-in.maegz

>  <s_sd_BIOSOLVEIT.INFINISEE\_QUERY\_NAME>  (46) 
Ref-Lig

>  <s_sd_BIOSOLVEIT.INFINISEE\_QUERY\_SMILES>  (46) 
S(c1nc2c(cc1C[NH2+]Cc3ccc(cc3)C[NH+](C)C)cccc2)Cc4ccccc4

>  <s_sd_BIOSOLVEIT.INFINISEE\_REACTION\_NAME>  (46) 
WXDL_15E

>  <s_sd_BIOSOLVEIT.INFINISEE\_REAGENT1\_NAME>  (46) 
QS5063

>  <s_sd_BIOSOLVEIT.INFINISEE\_REAGENT1\_SMILES>  (46) 
O=Cc1ccc(cc1)CN(C)C

>  <s_sd_BIOSOLVEIT.INFINISEE\_REAGENT2\_NAME>  (46) 
LN00174727

>  <s_sd_BIOSOLVEIT.INFINISEE\_REAGENT2\_SMILES>  (46) 
Brc1cnc(cc1)CNC(=O)OC(C)(C)C

>  <s_sd_BIOSOLVEIT.INFINISEE\_REAGENT3\_NAME>  (46) 
BT2076

>  <s_sd_BIOSOLVEIT.INFINISEE\_REAGENT3\_SMILES>  (46) 
O(C(C(O)(C)C)(C)C)B(O)c1cc(O)ccc1

>  <s_sd_BIOSOLVEIT.INFINISEE\_SPACE>  (46) 
GalaXi_12bn_2023-03

>  <s_vsw_compound_code>  (46) 
20033

>  <s_vsw_variant>  (46) 
20033-1

>  <r_epik_Charging_Adjusted_Penalty>  (46) 
0.355252158851251

>  <r_epik_Ionization_Penalty>  (46) 
0.17760000000000001

>  <r_epik_Ionization_Penalty_Charging>  (46) 
0.17630000000000001

>  <r_epik_Ionization_Penalty_Neutral>  (46) 
0.0012999999999999999

>  <r_epik_State_Penalty>  (46) 
0.17899999999999999

>  <r_i_docking_score>  (46) 
-6.1795954276148004

>  <r_i_glide_ecoul>  (46) 
-13.192979812622101

>  <r_i_glide_eff_state_penalty>  (46) 
0.17899999999999999

>  <r_i_glide_einternal>  (46) 
3.15296530723572

>  <r_i_glide_emodel>  (46) 
-71.820822963905201

>  <r_i_glide_energy>  (46) 
-44.706922531127901

>  <r_i_glide_erotb>  (46) 
0.93585446189056398

>  <r_i_glide_esite>  (46) 
-0.10000000000000001

>  <r_i_glide_evdw>  (46) 
-31.513942718505898

>  <r_i_glide_gscore>  (46) 
-6.3585954276147998

>  <r_i_glide_hbond>  (46) 
-0.40000000000000002

>  <r_i_glide_ligand_efficiency>  (46) 
-0.237676747215954

>  <r_i_glide_ligand_efficiency_ln>  (46) 
-1.4512577092688801

>  <r_i_glide_ligand_efficiency_sa>  (46) 
-0.70411642841442301

>  <r_i_glide_lipo>  (46) 
-1.98845996350494

>  <r_i_glide_metal>  (46) 
-0

>  <r_i_glide_rewards>  (46) 
-1.25134581818182

>  <r_lp_Energy>  (46) 
15.785899000000001

>  <r_lp_tautomer_probability>  (46) 
0.999999999997365

>  <r_qp_ACxDN^.5/SA>  (46) 
0.0102761

>  <r_qp_CIQPlogS>  (46) 
-3.1120000000000001

>  <r_qp_EA(eV)>  (46) 
0.58899999999999997

>  <r_qp_FISA>  (46) 
86.221000000000004

>  <r_qp_FOSA>  (46) 
252.26499999999999

>  <r_qp_IP(eV)>  (46) 
8.9809999999999999

>  <r_qp_Jm>  (46) 
0.00061028406918430303

>  <r_qp_PISA>  (46) 
384.02600000000001

>  <r_qp_PSA>  (46) 
53.697000000000003

>  <r_qp_PercentHumanOralAbsorption>  (46) 
82.905000000000001

>  <r_qp_QPPCaco>  (46) 
93.771000000000001

>  <r_qp_QPPMDCK>  (46) 
46.884999999999998

>  <r_qp_QPlogBB>  (46) 
-0.076999999999999999

>  <r_qp_QPlogHERG>  (46) 
-8.4489999999999998

>  <r_qp_QPlogKhsa>  (46) 
0.56999999999999995

>  <r_qp_QPlogKp>  (46) 
-5.1130000000000004

>  <r_qp_QPlogPC16>  (46) 
13.679

>  <r_qp_QPlogPo/w>  (46) 
3.5289999999999999

>  <r_qp_QPlogPoct>  (46) 
19.591000000000001

>  <r_qp_QPlogPw>  (46) 
10.992000000000001

>  <r_qp_QPlogS>  (46) 
-3.6429999999999998

>  <r_qp_QPpolrz>  (46) 
42.283000000000001

>  <r_qp_SASA>  (46) 
722.51199999999994

>  <r_qp_SAamideO>  (46) 
0

>  <r_qp_SAfluorine>  (46) 
0

>  <r_qp_WPSA>  (46) 
0

>  <r_qp_accptHB>  (46) 
5.25

>  <r_qp_dip^2/V>  (46) 
0.012428

>  <r_qp_dipole>  (46) 
3.9369999999999998

>  <r_qp_donorHB>  (46) 
2

>  <r_qp_glob>  (46) 
0.77548660000000003

>  <r_qp_mol_MW>  (46) 
347.459

>  <r_qp_volume>  (46) 
1247.0440000000001

>  <r_sd_BIOSOLVEIT.INFINISEE\_FTREES\_SIMILARITY>  (46) 
0.91700000000000004

>  <r_sd_BIOSOLVEIT.LOGP>  (46) 
1.3623000000000001

>  <r_sd_BIOSOLVEIT.MOLECULAR\_WEIGHT>  (46) 
349.47500000000002

>  <r_sd_BIOSOLVEIT.TPSA>  (46) 
54.170000000000002

>  <i_epik_Tot_Q>  (46) 
2

>  <i_epik_Tot_abs_Q>  (46) 
2

>  <i_f3d_flags>  (46) 
0

>  <i_i_glide_confnum>  (46) 
1

>  <i_i_glide_lignum>  (46) 
71

>  <i_i_glide_posenum>  (46) 
3

>  <i_i_glide_rotatable_bonds>  (46) 
8

>  <i_lp_mmshare_version>  (46) 
65135

>  <i_m_ct_format>  (46) 
2

>  <i_m_source_file_index>  (46) 
627

>  <i_qp_#NandO>  (46) 
4

>  <i_qp_#acid>  (46) 
0

>  <i_qp_#amide>  (46) 
0

>  <i_qp_#amidine>  (46) 
0

>  <i_qp_#amine>  (46) 
2

>  <i_qp_#in34>  (46) 
0

>  <i_qp_#in56>  (46) 
18

>  <i_qp_#metab>  (46) 
7

>  <i_qp_#nonHatm>  (46) 
26

>  <i_qp_#noncon>  (46) 
0

>  <i_qp_#ringatoms>  (46) 
18

>  <i_qp_#rotor>  (46) 
8

>  <i_qp_#rtvFG>  (46) 
0

>  <i_qp_#stars>  (46) 
0

>  <i_qp_CNS>  (46) 
1

>  <i_qp_HumanOralAbsorption>  (46) 
2

>  <i_qp_RuleOfFive>  (46) 
0

>  <i_qp_RuleOfThree>  (46) 
1

>  <i_sd_BIOSOLVEIT.INFINISEE\_RESULT\_RANK>  (46) 
24091

>  <i_sd_version>  (46) 
0

>  <b_lp_Chiralities_Consistent>  (46) 
1

>  <b_sd_chiral_flag>  (46) 
0

>  <acquisition_id>  (46) 
ATP-ACQ-0046

>  <canonical_id>  (46) 
ATP-HTVS-92BA88CED8DA

>  <compound_code>  (46) 
20033

>  <title>  (46) 
WXDL_15E____QS5063____LN00174727____BT2076

>  <variant>  (46) 
20033-1

>  <selection_arm>  (46) 
exploitation

>  <priority>  (46) 
P1

>  <wave>  (46) 
2

>  <source_file>  (46) 
运行/运行/ATP-VSW/ATP-VSW-DOCK_HTVS_1-001_lib/ATP-VSW-DOCK_HTVS_1-001_lib

>  <canonical_smiles>  (46) 
C[NH+](C)Cc1ccc(C[NH2+]Cc2ccc(-c3cccc(O)c3)cn2)cc1

$$$$
ATP-ACQ-0047
     RDKit          3D

 65 68  0  0  0  0  0  0  0  0999 V2000
  198.2613  183.6694  159.2055 O   0  0  0  0  0  0  0  0  0  0  0  0
  196.9095  183.9404  159.2954 C   0  0  0  0  0  0  0  0  0  0  0  0
  195.9064  183.1130  158.7287 C   0  0  0  0  0  0  0  0  0  0  0  0
  194.5430  183.4224  158.9176 C   0  0  0  0  0  0  0  0  0  0  0  0
  194.1781  184.5322  159.7043 C   0  0  0  0  0  0  0  0  0  0  0  0
  195.1550  185.3594  160.2665 C   0  0  0  0  0  0  0  0  0  0  0  0
  194.7582  186.4977  161.0724 C   0  0  0  0  0  0  0  0  0  0  0  0
  194.4368  187.4038  161.7202 N   0  0  0  0  0  0  0  0  0  0  0  0
  196.5195  185.0620  160.0580 C   0  0  0  0  0  0  0  0  0  0  0  0
  196.2222  181.8084  158.0197 C   0  0  1  0  0  0  0  0  0  0  0  0
  196.5957  181.9928  156.6230 N   0  0  0  0  0  0  0  0  0  0  0  0
  197.5839  181.1773  156.0087 C   0  0  0  0  0  0  0  0  0  0  0  0
  198.4603  180.5353  156.8190 N   0  0  0  0  0  0  0  0  0  0  0  0
  199.4176  179.7733  156.2549 C   0  0  0  0  0  0  0  0  0  0  0  0
  199.4983  179.6461  154.8290 C   0  0  0  0  0  0  0  0  0  0  0  0
  198.6795  180.3487  154.0132 N   0  0  0  0  0  0  0  0  0  0  0  0
  197.6957  181.0798  154.6019 C   0  0  0  0  0  0  0  0  0  0  0  0
  196.7484  181.7078  153.7874 N   0  0  0  0  0  0  0  0  0  0  0  0
  196.4947  181.2523  152.4384 C   0  0  1  0  0  0  0  0  0  0  0  0
  196.2706  179.7146  152.3035 C   0  0  1  0  0  0  0  0  0  0  0  0
  196.7416  179.2515  150.9451 C   0  0  0  0  0  0  0  0  0  0  0  0
  197.9525  178.5340  150.8126 C   0  0  0  0  0  0  0  0  0  0  0  0
  198.3546  178.0582  149.5515 C   0  0  0  0  0  0  0  0  0  0  0  0
  197.5761  178.3284  148.4113 C   0  0  0  0  0  0  0  0  0  0  0  0
  196.3784  179.0823  148.5439 C   0  0  0  0  0  0  0  0  0  0  0  0
  195.9691  179.5290  149.8044 C   0  0  0  0  0  0  0  0  0  0  0  0
  198.0276  177.8719  147.0386 C   0  0  1  0  0  0  0  0  0  0  0  0
  198.7437  178.9134  146.3014 N   0  0  0  0  0  0  0  0  0  0  0  0
  200.0356  179.2099  146.9128 C   0  0  2  0  0  0  0  0  0  0  0  0
  198.9901  178.4475  144.9447 C   0  0  2  0  0  0  0  0  0  0  0  0
  200.3824  178.6876  154.2952 C   0  0  0  0  0  0  0  0  0  0  0  0
  201.2517  177.9239  155.1053 C   0  0  0  0  0  0  0  0  0  0  0  0
  201.2426  178.1367  156.4979 C   0  0  0  0  0  0  0  0  0  0  0  0
  200.3331  179.0482  157.0642 C   0  0  0  0  0  0  0  0  0  0  0  0
  198.8835  183.8948  157.9351 C   0  0  2  0  0  0  0  0  0  0  0  0
  193.7604  182.7835  158.5285 H   0  0  0  0  0  0  0  0  0  0  0  0
  193.1393  184.7564  159.8711 H   0  0  0  0  0  0  0  0  0  0  0  0
  197.3022  185.6400  160.5109 H   0  0  0  0  0  0  0  0  0  0  0  0
  196.9960  181.3029  158.5937 H   0  0  0  0  0  0  0  0  0  0  0  0
  195.3346  181.1578  158.0961 H   0  0  0  0  0  0  0  0  0  0  0  0
  195.9935  182.5704  156.0778 H   0  0  0  0  0  0  0  0  0  0  0  0
  196.0265  182.2560  154.2309 H   0  0  0  0  0  0  0  0  0  0  0  0
  195.6036  181.7773  152.0921 H   0  0  0  0  0  0  0  0  0  0  0  0
  197.3218  181.6335  151.8345 H   0  0  0  0  0  0  0  0  0  0  0  0
  196.7975  179.0935  153.0350 H   0  0  0  0  0  0  0  0  0  0  0  0
  195.2072  179.4832  152.4437 H   0  0  0  0  0  0  0  0  0  0  0  0
  198.5560  178.3271  151.6831 H   0  0  0  0  0  0  0  0  0  0  0  0
  199.2840  177.5079  149.4608 H   0  0  0  0  0  0  0  0  0  0  0  0
  195.7395  179.2318  147.6924 H   0  0  0  0  0  0  0  0  0  0  0  0
  195.0389  180.0669  149.9195 H   0  0  0  0  0  0  0  0  0  0  0  0
  198.6462  176.9759  147.1265 H   0  0  0  0  0  0  0  0  0  0  0  0
  197.1436  177.5787  146.4697 H   0  0  0  0  0  0  0  0  0  0  0  0
  200.5806  179.9540  146.3302 H   0  0  0  0  0  0  0  0  0  0  0  0
  200.6563  178.3152  146.9831 H   0  0  0  0  0  0  0  0  0  0  0  0
  199.9106  179.6196  147.9144 H   0  0  0  0  0  0  0  0  0  0  0  0
  199.5194  179.1958  144.3519 H   0  0  0  0  0  0  0  0  0  0  0  0
  198.0475  178.2383  144.4404 H   0  0  0  0  0  0  0  0  0  0  0  0
  199.5862  177.5338  144.9529 H   0  0  0  0  0  0  0  0  0  0  0  0
  200.3817  178.5187  153.2288 H   0  0  0  0  0  0  0  0  0  0  0  0
  201.9481  177.2241  154.6611 H   0  0  0  0  0  0  0  0  0  0  0  0
  201.9437  177.5867  157.1192 H   0  0  0  0  0  0  0  0  0  0  0  0
  200.3317  179.1706  158.1430 H   0  0  0  0  0  0  0  0  0  0  0  0
  199.9530  183.6283  158.0434 H   0  0  0  0  0  0  0  0  0  0  0  0
  198.8085  184.9639  157.6940 H   0  0  0  0  0  0  0  0  0  0  0  0
  198.4400  183.3347  157.1553 H   0  0  0  0  0  0  0  0  0  0  0  0
  1  2  1  0
  1 35  1  0
  2  3  2  0
  2  9  1  0
  3  4  1  0
  3 10  1  0
  4  5  2  0
  4 36  1  0
  5  6  1  0
  5 37  1  0
  6  7  1  0
  6  9  2  0
  7  8  3  0
  9 38  1  0
 10 11  1  0
 10 39  1  1
 10 40  1  0
 11 12  1  0
 11 41  1  0
 12 13  2  0
 12 17  1  0
 13 14  1  0
 14 15  1  0
 14 34  2  0
 15 16  1  0
 15 31  2  0
 16 17  2  0
 17 18  1  0
 18 19  1  0
 18 42  1  0
 19 20  1  0
 19 43  1  6
 19 44  1  0
 20 21  1  0
 20 45  1  1
 20 46  1  0
 21 22  1  0
 21 26  2  0
 22 23  2  0
 22 47  1  0
 23 24  1  0
 23 48  1  0
 24 25  2  0
 24 27  1  0
 25 26  1  0
 25 49  1  0
 26 50  1  0
 27 28  1  0
 27 51  1  1
 27 52  1  0
 28 29  1  0
 28 30  1  0
 29 53  1  6
 29 54  1  0
 29 55  1  0
 30 56  1  6
 30 57  1  0
 30 58  1  0
 31 32  1  0
 31 59  1  0
 32 33  2  0
 32 60  1  0
 33 34  1  0
 33 61  1  0
 34 62  1  0
 35 63  1  1
 35 64  1  0
 35 65  1  0
M  END
>  <s_epik_cmdline>  (47) 
J2VwaWtfcHl0aG9uJywgJy1waCcsICc3LjAwMDAwMCcsICctcGh0JywgJzIuMDAwMDAwJywgJy1tcycsICcxNicsICctdG4nLCAnOCcsICctbWEnLCAnMjAwJywgJy1pbWFlJywgJzxpbmZpbGUubWFlPicsICctb21hZScsICc8b3V0ZmlsZS5tYWU+Jw==

>  <s_epik_input>  (47) 
TiNDYyhbY0hdMSlbY0hdW2NIXWMoYzFPW0NIM10pW0NIMl1bTkhdYyhuMiljKG5jKGMyMylbY0hdW2NIXVtjSF1bY0hdMylbTkhdW0NIMl1bQ0gyXWM0W2NIXVtjSF1jKFtjSF1bY0hdNClbQ0gyXU4oW0NIM10pW0NIM10=

>  <s_i_glide_gridfile>  (47) 
ATP-Grid

>  <s_lp_Force_Field>  (47) 
OPLS_2005

>  <s_lp_Variant>  (47) 
m_282030aaa____21917492____23157418____21967972-2

>  <s_lp_label>  (47) 
1756_sdstereoexpander_1_neutralizer_1_epik_2_stereoizer_1

>  <s_m_source_file>  (47) 
ATP-VSW-LIGPREP-001-in.maegz

>  <s_sd_BIOSOLVEIT.INFINISEE\_QUERY\_NAME>  (47) 
Ref-Lig

>  <s_sd_BIOSOLVEIT.INFINISEE\_QUERY\_SMILES>  (47) 
S(c1nc2c(cc1C[NH2+]Cc3ccc(cc3)C[NH+](C)C)cccc2)Cc4ccccc4

>  <s_sd_BIOSOLVEIT.INFINISEE\_REACTION\_NAME>  (47) 
m_282030aaa

>  <s_sd_BIOSOLVEIT.INFINISEE\_REAGENT1\_SMILES>  (47) 
[R1*]NCc1c(OC)cc(C#N)cc1

>  <s_sd_BIOSOLVEIT.INFINISEE\_REAGENT2\_SMILES>  (47) 
[R1*]c1nc2c(nc1[R2*])cccc2

>  <s_sd_BIOSOLVEIT.INFINISEE\_REAGENT3\_SMILES>  (47) 
[R2*]NCCc1ccc(cc1)CN(C)C

>  <s_sd_BIOSOLVEIT.INFINISEE\_SPACE>  (47) 
REALSpace_44bn_2023-08

>  <s_vsw_compound_code>  (47) 
56161

>  <s_vsw_variant>  (47) 
56161-2

>  <r_epik_Charging_Adjusted_Penalty>  (47) 
1.6032092271001199

>  <r_epik_Ionization_Penalty>  (47) 
1.6035999999999999

>  <r_epik_Ionization_Penalty_Charging>  (47) 
0

>  <r_epik_Ionization_Penalty_Neutral>  (47) 
1.6035999999999999

>  <r_epik_State_Penalty>  (47) 
1.6032

>  <r_i_docking_score>  (47) 
-3.4326665105423699

>  <r_i_glide_ecoul>  (47) 
-4.6909933090209996

>  <r_i_glide_eff_state_penalty>  (47) 
1.6032

>  <r_i_glide_einternal>  (47) 
10.724830627441399

>  <r_i_glide_emodel>  (47) 
-56.362162562245402

>  <r_i_glide_energy>  (47) 
-46.3682317733765

>  <r_i_glide_erotb>  (47) 
0.74143507201458103

>  <r_i_glide_esite>  (47) 
-0.11605991055187199

>  <r_i_glide_evdw>  (47) 
-41.677238464355497

>  <r_i_glide_gscore>  (47) 
-5.0358665105423697

>  <r_i_glide_hbond>  (47) 
-0.0058275249921878004

>  <r_i_glide_ligand_efficiency>  (47) 
-0.098076186015496405

>  <r_i_glide_ligand_efficiency_ln>  (47) 
-0.75354648299257099

>  <r_i_glide_ligand_efficiency_sa>  (47) 
-0.32081370752687799

>  <r_i_glide_lipo>  (47) 
-2.2578687150666301

>  <r_i_glide_metal>  (47) 
-0

>  <r_i_glide_rewards>  (47) 
-0.61003451237534001

>  <r_lp_Energy>  (47) 
27.146823000000001

>  <r_qp_ACxDN^.5/SA>  (47) 
0.015753699999999999

>  <r_qp_CIQPlogS>  (47) 
-7.016

>  <r_qp_EA(eV)>  (47) 
0.76700000000000002

>  <r_qp_FISA>  (47) 
95.959999999999994

>  <r_qp_FOSA>  (47) 
293.71600000000001

>  <r_qp_IP(eV)>  (47) 
8.0950000000000006

>  <r_qp_Jm>  (47) 
0.060078080249870901

>  <r_qp_PISA>  (47) 
261.15899999999999

>  <r_qp_PSA>  (47) 
75.647999999999996

>  <r_qp_PercentHumanOralAbsorption>  (47) 
93.498999999999995

>  <r_qp_QPPCaco>  (47) 
303.95400000000001

>  <r_qp_QPPMDCK>  (47) 
151.08000000000001

>  <r_qp_QPlogBB>  (47) 
-0.47799999999999998

>  <r_qp_QPlogHERG>  (47) 
-5.0069999999999997

>  <r_qp_QPlogKhsa>  (47) 
0.441

>  <r_qp_QPlogKp>  (47) 
-3.375

>  <r_qp_QPlogPC16>  (47) 
13.702

>  <r_qp_QPlogPo/w>  (47) 
3.7770000000000001

>  <r_qp_QPlogPoct>  (47) 
21.437000000000001

>  <r_qp_QPlogPw>  (47) 
11.358000000000001

>  <r_qp_QPlogS>  (47) 
-3.516

>  <r_qp_QPpolrz>  (47) 
43.253

>  <r_qp_SASA>  (47) 
650.83500000000004

>  <r_qp_SAamideO>  (47) 
0

>  <r_qp_SAfluorine>  (47) 
0

>  <r_qp_WPSA>  (47) 
0

>  <r_qp_accptHB>  (47) 
7.25

>  <r_qp_dip^2/V>  (47) 
0.019908599999999999

>  <r_qp_dipole>  (47) 
5.1820000000000004

>  <r_qp_donorHB>  (47) 
2

>  <r_qp_glob>  (47) 
0.90707740000000003

>  <r_qp_mol_MW>  (47) 
466.58499999999998

>  <r_qp_volume>  (47) 
1348.73

>  <r_sd_BIOSOLVEIT.INFINISEE\_FTREES\_SIMILARITY>  (47) 
0.90400000000000003

>  <r_sd_BIOSOLVEIT.LOGP>  (47) 
3.4212799999999999

>  <r_sd_BIOSOLVEIT.MOLECULAR\_WEIGHT>  (47) 
467.59399999999999

>  <r_sd_BIOSOLVEIT.TPSA>  (47) 
87.299999999999997

>  <i_epik_Tot_Q>  (47) 
0

>  <i_epik_Tot_abs_Q>  (47) 
0

>  <i_f3d_flags>  (47) 
0

>  <i_i_glide_confnum>  (47) 
9

>  <i_i_glide_lignum>  (47) 
500

>  <i_i_glide_posenum>  (47) 
6

>  <i_i_glide_rotatable_bonds>  (47) 
10

>  <i_lp_mmshare_version>  (47) 
65135

>  <i_m_ct_format>  (47) 
2

>  <i_m_source_file_index>  (47) 
1756

>  <i_qp_#NandO>  (47) 
7

>  <i_qp_#acid>  (47) 
0

>  <i_qp_#amide>  (47) 
0

>  <i_qp_#amidine>  (47) 
0

>  <i_qp_#amine>  (47) 
1

>  <i_qp_#in34>  (47) 
0

>  <i_qp_#in56>  (47) 
22

>  <i_qp_#metab>  (47) 
5

>  <i_qp_#nonHatm>  (47) 
35

>  <i_qp_#noncon>  (47) 
0

>  <i_qp_#ringatoms>  (47) 
22

>  <i_qp_#rotor>  (47) 
11

>  <i_qp_#rtvFG>  (47) 
0

>  <i_qp_#stars>  (47) 
0

>  <i_qp_CNS>  (47) 
1

>  <i_qp_HumanOralAbsorption>  (47) 
3

>  <i_qp_RuleOfFive>  (47) 
0

>  <i_qp_RuleOfThree>  (47) 
0

>  <i_sd_BIOSOLVEIT.INFINISEE\_REAGENT1\_NAME>  (47) 
21917492

>  <i_sd_BIOSOLVEIT.INFINISEE\_REAGENT2\_NAME>  (47) 
23157418

>  <i_sd_BIOSOLVEIT.INFINISEE\_REAGENT3\_NAME>  (47) 
21967972

>  <i_sd_BIOSOLVEIT.INFINISEE\_RESULT\_RANK>  (47) 
75011

>  <i_sd_version>  (47) 
0

>  <b_lp_Chiralities_Consistent>  (47) 
1

>  <b_sd_chiral_flag>  (47) 
0

>  <acquisition_id>  (47) 
ATP-ACQ-0047

>  <canonical_id>  (47) 
ATP-HTVS-94941B52F5EC

>  <compound_code>  (47) 
56161

>  <title>  (47) 
m_282030aaa____21917492____23157418____21967972

>  <variant>  (47) 
56161-2

>  <selection_arm>  (47) 
descriptor_diversity

>  <priority>  (47) 
P1

>  <wave>  (47) 
2

>  <source_file>  (47) 
运行/运行/ATP-VSW/ATP-VSW-DOCK_HTVS_1-001_lib/ATP-VSW-DOCK_HTVS_1-001_lib

>  <canonical_smiles>  (47) 
COc1cc(C#N)ccc1CNc1nc2ccccc2nc1NCCc1ccc(CN(C)C)cc1

$$$$
ATP-ACQ-0048
     RDKit          3D

 69 72  0  0  0  0  0  0  0  0999 V2000
  197.5078  184.2464  159.8543 F   0  0  0  0  0  0  0  0  0  0  0  0
  197.8505  183.5029  158.7762 C   0  0  0  0  0  0  0  0  0  0  0  0
  197.0451  182.4163  158.3734 C   0  0  0  0  0  0  0  0  0  0  0  0
  197.4191  181.6492  157.2511 C   0  0  0  0  0  0  0  0  0  0  0  0
  198.5726  181.9762  156.5154 C   0  0  0  0  0  0  0  0  0  0  0  0
  199.3722  183.0636  156.9198 C   0  0  0  0  0  0  0  0  0  0  0  0
  199.0177  183.8206  158.0544 C   0  0  0  0  0  0  0  0  0  0  0  0
  198.9165  181.2107  155.2588 C   0  0  1  0  0  0  0  0  0  0  0  0
  198.8007  179.7658  155.3717 N   0  0  0  0  0  0  0  0  0  0  0  0
  199.0573  178.9987  154.2271 C   0  0  0  0  0  0  0  0  0  0  0  0
  198.8016  179.5531  153.0162 N   0  0  0  0  0  0  0  0  0  0  0  0
  199.1284  178.8577  151.9023 C   0  0  0  0  0  0  0  0  0  0  0  0
  199.7031  177.5611  152.0073 C   0  0  0  0  0  0  0  0  0  0  0  0
  199.9258  177.0076  153.2045 N   0  0  0  0  0  0  0  0  0  0  0  0
  199.6330  177.7147  154.3275 C   0  0  0  0  0  0  0  0  0  0  0  0
  199.9588  177.1650  155.5774 N   0  0  0  0  0  0  0  0  0  0  0  0
  200.9326  176.0939  155.7701 C   0  0  1  0  0  0  0  0  0  0  0  0
  202.0854  176.0487  154.7748 C   0  0  0  0  0  0  0  0  0  0  0  0
  202.3138  174.8849  154.0258 C   0  0  0  0  0  0  0  0  0  0  0  0
  203.2559  174.8936  152.9806 C   0  0  0  0  0  0  0  0  0  0  0  0
  203.9753  176.0699  152.6565 C   0  0  0  0  0  0  0  0  0  0  0  0
  204.8954  176.0923  151.5848 N   0  0  0  0  0  0  0  0  0  0  0  0
  205.7273  177.2680  151.3616 C   0  0  2  0  0  0  0  0  0  0  0  0
  205.1175  174.8929  150.7873 C   0  0  2  0  0  0  0  0  0  0  0  0
  203.7170  177.2405  153.4139 C   0  0  0  0  0  0  0  0  0  0  0  0
  202.7926  177.2299  154.4665 C   0  0  0  0  0  0  0  0  0  0  0  0
  201.5088  176.2036  157.1802 C   0  0  2  0  0  0  0  0  0  0  0  0
  200.0856  176.8706  150.8416 C   0  0  0  0  0  0  0  0  0  0  0  0
  199.9110  177.4488  149.5733 C   0  0  0  0  0  0  0  0  0  0  0  0
  199.3289  178.7246  149.4592 C   0  0  0  0  0  0  0  0  0  0  0  0
  198.9321  179.4194  150.6217 C   0  0  0  0  0  0  0  0  0  0  0  0
  195.7881  182.0562  159.1324 C   0  0  1  0  0  0  0  0  0  0  0  0
  194.5867  182.4509  158.3552 N   0  0  1  0  0  0  0  0  0  0  0  0
  193.5380  181.4127  158.3307 C   0  0  2  0  0  0  0  0  0  0  0  0
  194.0654  183.7835  158.7323 C   0  0  2  0  0  0  0  0  0  0  0  0
  196.8158  180.8060  156.9403 H   0  0  0  0  0  0  0  0  0  0  0  0
  200.2533  183.3241  156.3501 H   0  0  0  0  0  0  0  0  0  0  0  0
  199.6387  184.6491  158.3596 H   0  0  0  0  0  0  0  0  0  0  0  0
  198.2316  181.5788  154.4950 H   0  0  0  0  0  0  0  0  0  0  0  0
  199.9350  181.4488  154.9440 H   0  0  0  0  0  0  0  0  0  0  0  0
  199.0088  179.3618  156.2752 H   0  0  0  0  0  0  0  0  0  0  0  0
  199.5756  177.5802  156.4145 H   0  0  0  0  0  0  0  0  0  0  0  0
  200.3822  175.1543  155.6918 H   0  0  0  0  0  0  0  0  0  0  0  0
  201.7285  173.9949  154.2108 H   0  0  0  0  0  0  0  0  0  0  0  0
  203.3577  173.9885  152.4032 H   0  0  0  0  0  0  0  0  0  0  0  0
  206.1943  177.6119  152.2865 H   0  0  0  0  0  0  0  0  0  0  0  0
  205.1201  178.0782  150.9553 H   0  0  0  0  0  0  0  0  0  0  0  0
  206.5303  177.0615  150.6530 H   0  0  0  0  0  0  0  0  0  0  0  0
  204.1775  174.5392  150.3624 H   0  0  0  0  0  0  0  0  0  0  0  0
  205.5506  174.0950  151.3944 H   0  0  0  0  0  0  0  0  0  0  0  0
  205.7964  175.0907  149.9575 H   0  0  0  0  0  0  0  0  0  0  0  0
  204.1689  178.1894  153.1624 H   0  0  0  0  0  0  0  0  0  0  0  0
  202.5722  178.1411  155.0002 H   0  0  0  0  0  0  0  0  0  0  0  0
  202.2147  175.3895  157.3342 H   0  0  0  0  0  0  0  0  0  0  0  0
  200.7433  176.2096  157.9467 H   0  0  0  0  0  0  0  0  0  0  0  0
  202.0240  177.1502  157.2880 H   0  0  0  0  0  0  0  0  0  0  0  0
  200.5589  175.9042  150.9439 H   0  0  0  0  0  0  0  0  0  0  0  0
  200.2375  176.9107  148.6934 H   0  0  0  0  0  0  0  0  0  0  0  0
  199.1892  179.1617  148.4861 H   0  0  0  0  0  0  0  0  0  0  0  0
  198.5050  180.4063  150.5351 H   0  0  0  0  0  0  0  0  0  0  0  0
  195.8127  180.9868  159.3353 H   0  0  0  0  0  0  0  0  0  0  0  0
  195.7983  182.5296  160.1150 H   0  0  0  0  0  0  0  0  0  0  0  0
  193.1503  181.2118  159.3281 H   0  0  0  0  0  0  0  0  0  0  0  0
  193.9396  180.4861  157.9277 H   0  0  0  0  0  0  0  0  0  0  0  0
  192.7124  181.7116  157.6822 H   0  0  0  0  0  0  0  0  0  0  0  0
  193.7864  183.8267  159.7875 H   0  0  0  0  0  0  0  0  0  0  0  0
  193.1778  184.0153  158.1532 H   0  0  0  0  0  0  0  0  0  0  0  0
  194.8078  184.5643  158.5537 H   0  0  0  0  0  0  0  0  0  0  0  0
  194.8633  182.5176  157.3816 H   0  0  0  0  0  0  0  0  0  0  0  0
  1  2  1  0
  2  3  2  0
  2  7  1  0
  3  4  1  0
  3 32  1  0
  4  5  2  0
  4 36  1  0
  5  6  1  0
  5  8  1  0
  6  7  2  0
  6 37  1  0
  7 38  1  0
  8  9  1  0
  8 39  1  6
  8 40  1  0
  9 10  1  0
  9 41  1  0
 10 11  2  0
 10 15  1  0
 11 12  1  0
 12 13  1  0
 12 31  2  0
 13 14  1  0
 13 28  2  0
 14 15  2  0
 15 16  1  0
 16 17  1  0
 16 42  1  0
 17 18  1  0
 17 27  1  0
 17 43  1  1
 18 19  1  0
 18 26  2  0
 19 20  2  0
 19 44  1  0
 20 21  1  0
 20 45  1  0
 21 22  1  0
 21 25  2  0
 22 23  1  0
 22 24  1  0
 23 46  1  1
 23 47  1  0
 23 48  1  0
 24 49  1  6
 24 50  1  0
 24 51  1  0
 25 26  1  0
 25 52  1  0
 26 53  1  0
 27 54  1  1
 27 55  1  0
 27 56  1  0
 28 29  1  0
 28 57  1  0
 29 30  2  0
 29 58  1  0
 30 31  1  0
 30 59  1  0
 31 60  1  0
 32 33  1  0
 32 61  1  1
 32 62  1  0
 33 34  1  0
 33 35  1  0
 33 69  1  6
 34 63  1  1
 34 64  1  0
 34 65  1  0
 35 66  1  1
 35 67  1  0
 35 68  1  0
M  CHG  1  33   1
M  END
>  <s_epik_cmdline>  (48) 
J2VwaWtfcHl0aG9uJywgJy1waCcsICc3LjAwMDAwMCcsICctcGh0JywgJzIuMDAwMDAwJywgJy1tcycsICcxNicsICctdG4nLCAnOCcsICctbWEnLCAnMjAwJywgJy1pbWFlJywgJzxpbmZpbGUubWFlPicsICctb21hZScsICc8b3V0ZmlsZS5tYWU+Jw==

>  <s_epik_input>  (48) 
W0NIM11OKFtDSDNdKVtDSDJdYyhjMUYpW2NIXWMoW2NIXVtjSF0xKVtDSDJdW05IXWMobjIpYyhuYyhjMjMpW2NIXVtjSF1bY0hdW2NIXTMpW05IXVtDQEhdKFtDSDNdKWM0W2NIXVtjSF1jKE4oW0NIM10pW0NIM10pW2NIXVtjSF00

>  <s_i_glide_gridfile>  (48) 
ATP-Grid

>  <s_lp_Force_Field>  (48) 
OPLS_2005

>  <s_lp_Variant>  (48) 
m_282030aaa____21932362____23157418____21968946-1

>  <s_lp_label>  (48) 
1623_sdstereoexpander_1_neutralizer_1_epik_1_stereoizer_1

>  <s_m_source_file>  (48) 
ATP-VSW-LIGPREP-003-in.maegz

>  <s_sd_BIOSOLVEIT.INFINISEE\_QUERY\_NAME>  (48) 
Ref-Lig

>  <s_sd_BIOSOLVEIT.INFINISEE\_QUERY\_SMILES>  (48) 
S(c1nc2c(cc1C[NH2+]Cc3ccc(cc3)C[NH+](C)C)cccc2)Cc4ccccc4

>  <s_sd_BIOSOLVEIT.INFINISEE\_REACTION\_NAME>  (48) 
m_282030aaa

>  <s_sd_BIOSOLVEIT.INFINISEE\_REAGENT1\_SMILES>  (48) 
[R1*]NC(c1ccc(N(C)C)cc1)C

>  <s_sd_BIOSOLVEIT.INFINISEE\_REAGENT2\_SMILES>  (48) 
[R1*]c1nc2c(nc1[R2*])cccc2

>  <s_sd_BIOSOLVEIT.INFINISEE\_REAGENT3\_SMILES>  (48) 
[R2*]NCc1cc(c(F)cc1)CN(C)C

>  <s_sd_BIOSOLVEIT.INFINISEE\_SPACE>  (48) 
REALSpace_44bn_2023-08

>  <s_vsw_compound_code>  (48) 
51907

>  <s_vsw_variant>  (48) 
51907-1

>  <r_epik_Charging_Adjusted_Penalty>  (48) 
0.15921998291277401

>  <r_epik_Ionization_Penalty>  (48) 
0.108

>  <r_epik_Ionization_Penalty_Charging>  (48) 
0.0516

>  <r_epik_Ionization_Penalty_Neutral>  (48) 
0.056399999999999999

>  <r_epik_State_Penalty>  (48) 
0.1076

>  <r_i_docking_score>  (48) 
-3.5531157177696402

>  <r_i_glide_ecoul>  (48) 
-8.68920993804932

>  <r_i_glide_eff_state_penalty>  (48) 
0.1076

>  <r_i_glide_einternal>  (48) 
2.8242156505584699

>  <r_i_glide_emodel>  (48) 
-48.548733926740901

>  <r_i_glide_energy>  (48) 
-37.368752479553201

>  <r_i_glide_erotb>  (48) 
0.63129103519680896

>  <r_i_glide_esite>  (48) 
-0.162534106374183

>  <r_i_glide_evdw>  (48) 
-28.679542541503899

>  <r_i_glide_gscore>  (48) 
-3.6607157177696399

>  <r_i_glide_hbond>  (48) 
-0.069655737850460406

>  <r_i_glide_ligand_efficiency>  (48) 
-0.10151759193627501

>  <r_i_glide_ligand_efficiency_ln>  (48) 
-0.77998775720508096

>  <r_i_glide_ligand_efficiency_sa>  (48) 
-0.33207077448068101

>  <r_i_glide_lipo>  (48) 
-0.666065110077942

>  <r_i_glide_metal>  (48) 
-0

>  <r_i_glide_rewards>  (48) 
-0.65639318088127396

>  <r_lp_Energy>  (48) 
23.106110000000001

>  <r_qp_ACxDN^.5/SA>  (48) 
0.012996199999999999

>  <r_qp_CIQPlogS>  (48) 
-6.6260000000000003

>  <r_qp_EA(eV)>  (48) 
0.70599999999999996

>  <r_qp_FISA>  (48) 
28.556000000000001

>  <r_qp_FOSA>  (48) 
352.31099999999998

>  <r_qp_IP(eV)>  (48) 
7.944

>  <r_qp_Jm>  (48) 
1.0341916689732999

>  <r_qp_PISA>  (48) 
257.50700000000001

>  <r_qp_PSA>  (48) 
47.469999999999999

>  <r_qp_PercentHumanOralAbsorption>  (48) 
100

>  <r_qp_QPPCaco>  (48) 
1324.366

>  <r_qp_QPPMDCK>  (48) 
890.678

>  <r_qp_QPlogBB>  (48) 
0.22800000000000001

>  <r_qp_QPlogHERG>  (48) 
-4.8600000000000003

>  <r_qp_QPlogKhsa>  (48) 
0.81100000000000005

>  <r_qp_QPlogKp>  (48) 
-2.3370000000000002

>  <r_qp_QPlogPC16>  (48) 
13.321

>  <r_qp_QPlogPo/w>  (48) 
4.9409999999999998

>  <r_qp_QPlogPoct>  (48) 
21.190999999999999

>  <r_qp_QPlogPw>  (48) 
10.095000000000001

>  <r_qp_QPlogS>  (48) 
-3.323

>  <r_qp_QPpolrz>  (48) 
45.482999999999997

>  <r_qp_SASA>  (48) 
652.90700000000004

>  <r_qp_SAamideO>  (48) 
0

>  <r_qp_SAfluorine>  (48) 
14.534000000000001

>  <r_qp_WPSA>  (48) 
14.534000000000001

>  <r_qp_accptHB>  (48) 
6

>  <r_qp_dip^2/V>  (48) 
0.0058231000000000003

>  <r_qp_dipole>  (48) 
2.8279999999999998

>  <r_qp_donorHB>  (48) 
2

>  <r_qp_glob>  (48) 
0.9151125

>  <r_qp_mol_MW>  (48) 
472.60700000000003

>  <r_qp_volume>  (48) 
1373.223

>  <r_sd_BIOSOLVEIT.INFINISEE\_FTREES\_SIMILARITY>  (48) 
0.90600000000000003

>  <r_sd_BIOSOLVEIT.LOGP>  (48) 
4.2645999999999997

>  <r_sd_BIOSOLVEIT.MOLECULAR\_WEIGHT>  (48) 
473.61700000000002

>  <r_sd_BIOSOLVEIT.TPSA>  (48) 
57.520000000000003

>  <i_epik_Tot_Q>  (48) 
1

>  <i_epik_Tot_abs_Q>  (48) 
1

>  <i_f3d_flags>  (48) 
0

>  <i_i_glide_confnum>  (48) 
5

>  <i_i_glide_lignum>  (48) 
618

>  <i_i_glide_posenum>  (48) 
8

>  <i_i_glide_rotatable_bonds>  (48) 
9

>  <i_lp_mmshare_version>  (48) 
65135

>  <i_m_ct_format>  (48) 
2

>  <i_m_source_file_index>  (48) 
1623

>  <i_qp_#NandO>  (48) 
6

>  <i_qp_#acid>  (48) 
0

>  <i_qp_#amide>  (48) 
0

>  <i_qp_#amidine>  (48) 
0

>  <i_qp_#amine>  (48) 
1

>  <i_qp_#in34>  (48) 
0

>  <i_qp_#in56>  (48) 
22

>  <i_qp_#metab>  (48) 
6

>  <i_qp_#nonHatm>  (48) 
35

>  <i_qp_#noncon>  (48) 
0

>  <i_qp_#ringatoms>  (48) 
22

>  <i_qp_#rotor>  (48) 
9

>  <i_qp_#rtvFG>  (48) 
0

>  <i_qp_#stars>  (48) 
0

>  <i_qp_CNS>  (48) 
1

>  <i_qp_HumanOralAbsorption>  (48) 
3

>  <i_qp_RuleOfFive>  (48) 
0

>  <i_qp_RuleOfThree>  (48) 
0

>  <i_sd_BIOSOLVEIT.INFINISEE\_REAGENT1\_NAME>  (48) 
21932362

>  <i_sd_BIOSOLVEIT.INFINISEE\_REAGENT2\_NAME>  (48) 
23157418

>  <i_sd_BIOSOLVEIT.INFINISEE\_REAGENT3\_NAME>  (48) 
21968946

>  <i_sd_BIOSOLVEIT.INFINISEE\_RESULT\_RANK>  (48) 
67277

>  <i_sd_version>  (48) 
0

>  <b_lp_Chiralities_Consistent>  (48) 
1

>  <b_sd_chiral_flag>  (48) 
0

>  <acquisition_id>  (48) 
ATP-ACQ-0048

>  <canonical_id>  (48) 
ATP-HTVS-85577F90127E

>  <compound_code>  (48) 
51907

>  <title>  (48) 
m_282030aaa____21932362____23157418____21968946

>  <variant>  (48) 
51907-1

>  <selection_arm>  (48) 
score_calibration

>  <priority>  (48) 
P1

>  <wave>  (48) 
2

>  <source_file>  (48) 
运行/运行/ATP-VSW/ATP-VSW-DOCK_HTVS_1-003_lib/ATP-VSW-DOCK_HTVS_1-003_lib.mae

>  <canonical_smiles>  (48) 
C[C@@H](Nc1nc2ccccc2nc1NCc1ccc(F)c(C[NH+](C)C)c1)c1ccc(N(C)C)cc1

$$$$
ATP-ACQ-0049
     RDKit          3D

 55 58  0  0  0  0  0  0  0  0999 V2000
  200.2948  178.8743  152.8432 S   0  0  0  0  0  0  0  0  0  0  0  0
  200.7305  177.5614  153.9081 C   0  0  0  0  0  0  0  0  0  0  0  0
  199.9988  177.6249  155.1339 C   0  0  0  0  0  0  0  0  0  0  0  0
  200.2626  176.6296  156.0948 C   0  0  0  0  0  0  0  0  0  0  0  0
  201.1966  175.6083  155.8493 C   0  0  0  0  0  0  0  0  0  0  0  0
  201.8952  175.5660  154.6297 C   0  0  0  0  0  0  0  0  0  0  0  0
  201.6665  176.5460  153.6550 C   0  0  0  0  0  0  0  0  0  0  0  0
  199.0829  178.7276  155.1621 C   0  0  0  0  0  0  0  0  0  0  0  0
  199.1299  179.4643  153.9975 C   0  0  0  0  0  0  0  0  0  0  0  0
  198.3562  180.6993  153.6708 C   0  0  1  0  0  0  0  0  0  0  0  0
  197.2598  180.4534  152.7505 N   0  0  0  0  0  0  0  0  0  0  0  0
  197.6008  180.7725  151.3700 C   0  0  1  0  0  0  0  0  0  0  0  0
  196.6791  180.0594  150.4796 C   0  0  0  0  0  0  0  0  0  0  0  0
  195.9497  179.5011  149.7786 N   0  0  0  0  0  0  0  0  0  0  0  0
  197.6125  182.2694  151.0427 C   0  0  0  0  0  0  0  0  0  0  0  0
  197.7094  182.6841  149.6956 C   0  0  0  0  0  0  0  0  0  0  0  0
  197.7005  184.0577  149.3732 C   0  0  0  0  0  0  0  0  0  0  0  0
  197.6211  185.0345  150.3867 C   0  0  0  0  0  0  0  0  0  0  0  0
  197.5450  184.6305  151.7290 C   0  0  0  0  0  0  0  0  0  0  0  0
  197.5216  183.2689  152.0465 C   0  0  0  0  0  0  0  0  0  0  0  0
  197.7917  181.2942  154.8631 C   0  0  0  0  0  0  0  0  0  0  0  0
  197.2725  181.7345  155.8682 C   0  0  0  0  0  0  0  0  0  0  0  0
  196.8674  182.2833  157.1552 C   0  0  1  0  0  0  0  0  0  0  0  0
  195.4949  181.8336  157.4337 N   0  0  1  0  0  0  0  0  0  0  0  0
  195.0167  182.1415  158.8067 C   0  0  1  0  0  0  0  0  0  0  0  0
  195.4011  183.5109  159.3634 C   0  0  0  0  0  0  0  0  0  0  0  0
  196.7534  183.9075  159.5110 C   0  0  0  0  0  0  0  0  0  0  0  0
  197.0786  185.2156  159.8502 C   0  0  0  0  0  0  0  0  0  0  0  0
  196.0724  186.1612  160.1979 C   0  0  0  0  0  0  0  0  0  0  0  0
  194.7172  185.7417  160.1689 C   0  0  0  0  0  0  0  0  0  0  0  0
  194.3705  184.4284  159.7326 C   0  0  0  0  0  0  0  0  0  0  0  0
  196.9202  179.5050  152.8521 H   0  0  0  0  0  0  0  0  0  0  0  0
  194.8612  182.2237  156.7301 H   0  0  0  0  0  0  0  0  0  0  0  0
  199.7097  176.6576  157.0247 H   0  0  0  0  0  0  0  0  0  0  0  0
  201.3650  174.8511  156.5985 H   0  0  0  0  0  0  0  0  0  0  0  0
  202.6082  174.7796  154.4460 H   0  0  0  0  0  0  0  0  0  0  0  0
  202.1983  176.5324  152.7153 H   0  0  0  0  0  0  0  0  0  0  0  0
  198.4499  178.9162  156.0277 H   0  0  0  0  0  0  0  0  0  0  0  0
  199.0465  181.4579  153.2930 H   0  0  0  0  0  0  0  0  0  0  0  0
  198.5835  180.3592  151.1618 H   0  0  0  0  0  0  0  0  0  0  0  0
  197.7768  181.9550  148.8974 H   0  0  0  0  0  0  0  0  0  0  0  0
  197.7512  184.3739  148.3452 H   0  0  0  0  0  0  0  0  0  0  0  0
  197.6122  186.0914  150.1581 H   0  0  0  0  0  0  0  0  0  0  0  0
  197.4867  185.3437  152.5400 H   0  0  0  0  0  0  0  0  0  0  0  0
  197.4243  183.0450  153.0907 H   0  0  0  0  0  0  0  0  0  0  0  0
  197.5720  181.8926  157.8958 H   0  0  0  0  0  0  0  0  0  0  0  0
  196.9588  183.3643  157.0671 H   0  0  0  0  0  0  0  0  0  0  0  0
  193.9327  182.0164  158.7727 H   0  0  0  0  0  0  0  0  0  0  0  0
  195.3675  181.3731  159.4911 H   0  0  0  0  0  0  0  0  0  0  0  0
  197.5780  183.2342  159.3571 H   0  0  0  0  0  0  0  0  0  0  0  0
  198.1037  185.5342  159.8261 H   0  0  0  0  0  0  0  0  0  0  0  0
  196.3448  187.1737  160.5145 H   0  0  0  0  0  0  0  0  0  0  0  0
  193.9214  186.4400  160.4856 H   0  0  0  0  0  0  0  0  0  0  0  0
  193.3130  184.1615  159.6628 H   0  0  0  0  0  0  0  0  0  0  0  0
  195.4980  180.8162  157.3351 H   0  0  0  0  0  0  0  0  0  0  0  0
  1  2  1  0
  1  9  1  0
  2  3  1  0
  2  7  2  0
  3  4  2  0
  3  8  1  0
  4  5  1  0
  4 34  1  0
  5  6  2  0
  5 35  1  0
  6  7  1  0
  6 36  1  0
  7 37  1  0
  8  9  2  0
  8 38  1  0
  9 10  1  0
 10 11  1  0
 10 21  1  0
 10 39  1  6
 11 12  1  0
 11 32  1  0
 12 13  1  0
 12 15  1  0
 12 40  1  6
 13 14  3  0
 15 16  2  0
 15 20  1  0
 16 17  1  0
 16 41  1  0
 17 18  2  0
 17 42  1  0
 18 19  1  0
 18 43  1  0
 19 20  2  0
 19 44  1  0
 20 45  1  0
 21 22  3  0
 22 23  1  0
 23 24  1  0
 23 46  1  1
 23 47  1  0
 24 25  1  0
 24 33  1  6
 24 55  1  0
 25 26  1  0
 25 48  1  6
 25 49  1  0
 26 27  2  0
 26 31  1  0
 27 28  1  0
 27 50  1  0
 28 29  2  0
 28 51  1  0
 29 30  1  0
 29 52  1  0
 30 31  2  0
 30 53  1  0
 31 54  1  0
M  CHG  1  24   1
M  END
>  <s_epik_cmdline>  (49) 
J2VwaWtfcHl0aG9uJywgJy1waCcsICc3LjAwMDAwMCcsICctcGh0JywgJzIuMDAwMDAwJywgJy1tcycsICcxNicsICctdG4nLCAnOCcsICctbWEnLCAnMjAwJywgJy1pbWFlJywgJzxpbmZpbGUubWFlPicsICctb21hZScsICc8b3V0ZmlsZS5tYWU+Jw==

>  <s_epik_input>  (49) 
W2NIXTFbY0hdW2NIXVtjSF1bY0hdYzFbQ0BIXShDI04pW05IXVtDQEhdKGMoczIpW2NIXWMoYzIzKVtjSF1bY0hdW2NIXVtjSF0zKUMjQ1tDSDJdW05IXVtDSDJdYzRbY0hdW2NIXVtjSF1bY0hdW2NIXTQ=

>  <s_i_glide_gridfile>  (49) 
ATP-Grid

>  <s_lp_Force_Field>  (49) 
OPLS_2005

>  <s_lp_Variant>  (49) 
rxn403____EMOL44390368____EMOL720244____EMOL1197208-6

>  <s_lp_label>  (49) 
2478_sdstereoexpander_2_neutralizer_1_epik_2_stereoizer_1

>  <s_m_source_file>  (49) 
ATP-VSW-LIGPREP-001-in.maegz

>  <s_sd_BIOSOLVEIT.INFINISEE\_QUERY\_NAME>  (49) 
Ref-Lig

>  <s_sd_BIOSOLVEIT.INFINISEE\_QUERY\_SMILES>  (49) 
S(c1nc2c(cc1C[NH2+]Cc3ccc(cc3)C[NH+](C)C)cccc2)Cc4ccccc4

>  <s_sd_BIOSOLVEIT.INFINISEE\_REACTION\_NAME>  (49) 
rxn403

>  <s_sd_BIOSOLVEIT.INFINISEE\_REAGENT1\_NAME>  (49) 
EMOL44390368

>  <s_sd_BIOSOLVEIT.INFINISEE\_REAGENT1\_SMILES>  (49) 
N#CC(N)c1ccccc1

>  <s_sd_BIOSOLVEIT.INFINISEE\_REAGENT2\_NAME>  (49) 
EMOL720244

>  <s_sd_BIOSOLVEIT.INFINISEE\_REAGENT2\_SMILES>  (49) 
S1c2c(cccc2)C=C1C=O

>  <s_sd_BIOSOLVEIT.INFINISEE\_REAGENT3\_NAME>  (49) 
EMOL1197208

>  <s_sd_BIOSOLVEIT.INFINISEE\_REAGENT3\_SMILES>  (49) 
N(CC#C)Cc1ccccc1

>  <s_sd_BIOSOLVEIT.INFINISEE\_SPACE>  (49) 
eXplore_7tr_2022-12

>  <s_vsw_compound_code>  (49) 
79265

>  <s_vsw_variant>  (49) 
79265-6

>  <r_epik_Charging_Adjusted_Penalty>  (49) 
0.99449727091298001

>  <r_epik_Ionization_Penalty>  (49) 
0.5

>  <r_epik_Ionization_Penalty_Charging>  (49) 
0.49719999999999998

>  <r_epik_Ionization_Penalty_Neutral>  (49) 
0.0027000000000000001

>  <r_epik_State_Penalty>  (49) 
0.49719999999999998

>  <r_i_docking_score>  (49) 
-6.1049705178208802

>  <r_i_glide_ecoul>  (49) 
-11.668799400329601

>  <r_i_glide_eff_state_penalty>  (49) 
0.49719999999999998

>  <r_i_glide_einternal>  (49) 
8.8885316848754901

>  <r_i_glide_emodel>  (49) 
-76.755817942427996

>  <r_i_glide_energy>  (49) 
-50.353110313415499

>  <r_i_glide_erotb>  (49) 
0.66570597144055599

>  <r_i_glide_esite>  (49) 
-0.10000000000000001

>  <r_i_glide_evdw>  (49) 
-38.684310913085902

>  <r_i_glide_gscore>  (49) 
-6.6021705178208796

>  <r_i_glide_hbond>  (49) 
-0.40000000000000002

>  <r_i_glide_ligand_efficiency>  (49) 
-0.196934532832932

>  <r_i_glide_ligand_efficiency_ln>  (49) 
-1.37685794664573

>  <r_i_glide_ligand_efficiency_sa>  (49) 
-0.61864633052096796

>  <r_i_glide_lipo>  (49) 
-2.1253093673666599

>  <r_i_glide_metal>  (49) 
-0

>  <r_i_glide_rewards>  (49) 
-0.95803166619103697

>  <r_lp_Energy>  (49) 
13.903465000000001

>  <r_qp_ACxDN^.5/SA>  (49) 
0.0086630000000000006

>  <r_qp_CIQPlogS>  (49) 
-6.0590000000000002

>  <r_qp_EA(eV)>  (49) 
0.80800000000000005

>  <r_qp_FISA>  (49) 
77.349999999999994

>  <r_qp_FOSA>  (49) 
106.485

>  <r_qp_IP(eV)>  (49) 
8.8640000000000008

>  <r_qp_Jm>  (49) 
0.000252097315531427

>  <r_qp_PISA>  (49) 
515.81399999999996

>  <r_qp_PSA>  (49) 
48.353000000000002

>  <r_qp_PercentHumanOralAbsorption>  (49) 
92.144999999999996

>  <r_qp_QPPCaco>  (49) 
113.812

>  <r_qp_QPPMDCK>  (49) 
89.850999999999999

>  <r_qp_QPlogBB>  (49) 
0.047

>  <r_qp_QPlogHERG>  (49) 
-8.6069999999999993

>  <r_qp_QPlogKhsa>  (49) 
0.91800000000000004

>  <r_qp_QPlogKp>  (49) 
-4.2930000000000001

>  <r_qp_QPlogPC16>  (49) 
15.682

>  <r_qp_QPlogPo/w>  (49) 
4.8499999999999996

>  <r_qp_QPlogPoct>  (49) 
21.155000000000001

>  <r_qp_QPlogPw>  (49) 
10.69

>  <r_qp_QPlogS>  (49) 
-4.9299999999999997

>  <r_qp_QPpolrz>  (49) 
46.417000000000002

>  <r_qp_SASA>  (49) 
734.61800000000005

>  <r_qp_SAamideO>  (49) 
0

>  <r_qp_SAfluorine>  (49) 
0

>  <r_qp_WPSA>  (49) 
34.969000000000001

>  <r_qp_accptHB>  (49) 
4.5

>  <r_qp_dip^2/V>  (49) 
0.018316200000000001

>  <r_qp_dipole>  (49) 
4.9740000000000002

>  <r_qp_donorHB>  (49) 
2

>  <r_qp_glob>  (49) 
0.80451700000000004

>  <r_qp_mol_MW>  (49) 
421.55900000000003

>  <r_qp_volume>  (49) 
1350.9749999999999

>  <r_sd_BIOSOLVEIT.INFINISEE\_FTREES\_SIMILARITY>  (49) 
0.91500000000000004

>  <r_sd_BIOSOLVEIT.LOGP>  (49) 
3.5376799999999999

>  <r_sd_BIOSOLVEIT.MOLECULAR\_WEIGHT>  (49) 
423.58100000000002

>  <r_sd_BIOSOLVEIT.TPSA>  (49) 
57.009999999999998

>  <i_epik_Tot_Q>  (49) 
1

>  <i_epik_Tot_abs_Q>  (49) 
1

>  <i_f3d_flags>  (49) 
0

>  <i_i_glide_confnum>  (49) 
7

>  <i_i_glide_lignum>  (49) 
972

>  <i_i_glide_posenum>  (49) 
3

>  <i_i_glide_rotatable_bonds>  (49) 
9

>  <i_lp_mmshare_version>  (49) 
65135

>  <i_m_ct_format>  (49) 
2

>  <i_m_source_file_index>  (49) 
2478

>  <i_qp_#NandO>  (49) 
3

>  <i_qp_#acid>  (49) 
0

>  <i_qp_#amide>  (49) 
0

>  <i_qp_#amidine>  (49) 
0

>  <i_qp_#amine>  (49) 
2

>  <i_qp_#in34>  (49) 
0

>  <i_qp_#in56>  (49) 
21

>  <i_qp_#metab>  (49) 
8

>  <i_qp_#nonHatm>  (49) 
31

>  <i_qp_#noncon>  (49) 
0

>  <i_qp_#ringatoms>  (49) 
21

>  <i_qp_#rotor>  (49) 
10

>  <i_qp_#rtvFG>  (49) 
0

>  <i_qp_#stars>  (49) 
1

>  <i_qp_CNS>  (49) 
1

>  <i_qp_HumanOralAbsorption>  (49) 
3

>  <i_qp_RuleOfFive>  (49) 
0

>  <i_qp_RuleOfThree>  (49) 
1

>  <i_sd_BIOSOLVEIT.INFINISEE\_RESULT\_RANK>  (49) 
28557

>  <i_sd_version>  (49) 
0

>  <b_lp_Chiralities_Consistent>  (49) 
1

>  <b_sd_chiral_flag>  (49) 
0

>  <acquisition_id>  (49) 
ATP-ACQ-0049

>  <canonical_id>  (49) 
ATP-HTVS-3FEB13A0176D

>  <compound_code>  (49) 
79265

>  <title>  (49) 
rxn403____EMOL44390368____EMOL720244____EMOL1197208

>  <variant>  (49) 
79265-6

>  <selection_arm>  (49) 
exploitation

>  <priority>  (49) 
P1

>  <wave>  (49) 
2

>  <source_file>  (49) 
运行/运行/ATP-VSW/ATP-VSW-DOCK_HTVS_1-001_lib/ATP-VSW-DOCK_HTVS_1-001_lib

>  <canonical_smiles>  (49) 
N#C[C@H](N[C@@H](C#CC[NH2+]Cc1ccccc1)c1cc2ccccc2s1)c1ccccc1

$$$$
ATP-ACQ-0050
     RDKit          3D

 61 63  0  0  0  0  0  0  0  0999 V2000
  201.1552  178.9739  156.1652 O   0  0  0  0  0  0  0  0  0  0  0  0
  201.4460  180.0469  156.9577 C   0  0  0  0  0  0  0  0  0  0  0  0
  202.1746  180.0161  158.1801 C   0  0  0  0  0  0  0  0  0  0  0  0
  202.4021  181.1038  158.9380 N   0  0  0  0  0  0  0  0  0  0  0  0
  202.0446  182.3172  158.4496 C   0  0  0  0  0  0  0  0  0  0  0  0
  201.4588  182.4642  157.1717 C   0  0  0  0  0  0  0  0  0  0  0  0
  201.0707  181.3216  156.4721 C   0  0  0  0  0  0  0  0  0  0  0  0
  202.3122  183.4948  159.3778 C   0  0  1  0  0  0  0  0  0  0  0  0
  201.0874  184.2290  159.7782 N   0  0  1  0  0  0  0  0  0  0  0  0
  200.4009  184.9130  158.6529 C   0  0  1  0  0  0  0  0  0  0  0  0
  199.1693  185.6224  159.1165 C   0  0  0  0  0  0  0  0  0  0  0  0
  197.9584  184.9041  159.2921 C   0  0  0  0  0  0  0  0  0  0  0  0
  197.9116  183.5016  159.0518 N   0  0  0  0  0  0  0  0  0  0  0  0
  196.6541  182.7706  159.1086 C   0  0  1  0  0  0  0  0  0  0  0  0
  195.7526  183.0377  157.8926 C   0  0  1  0  0  0  0  0  0  0  0  0
  194.3245  182.8180  158.2113 N   0  0  1  0  0  0  0  0  0  0  0  0
  193.9789  181.4329  158.5681 C   0  0  2  0  0  0  0  0  0  0  0  0
  193.7281  183.8364  159.0925 C   0  0  2  0  0  0  0  0  0  0  0  0
  196.8108  185.6354  159.6675 C   0  0  0  0  0  0  0  0  0  0  0  0
  196.8593  187.0315  159.8539 C   0  0  0  0  0  0  0  0  0  0  0  0
  198.0616  187.7300  159.6458 C   0  0  0  0  0  0  0  0  0  0  0  0
  199.2180  187.0239  159.2765 C   0  0  0  0  0  0  0  0  0  0  0  0
  201.2107  177.6675  156.7144 C   0  0  1  0  0  0  0  0  0  0  0  0
  201.5757  176.6441  155.6718 C   0  0  0  0  0  0  0  0  0  0  0  0
  201.6924  176.9938  154.3089 C   0  0  0  0  0  0  0  0  0  0  0  0
  202.0587  176.0178  153.3691 C   0  0  0  0  0  0  0  0  0  0  0  0
  202.3156  174.6991  153.7899 C   0  0  0  0  0  0  0  0  0  0  0  0
  202.2169  174.3572  155.1525 C   0  0  0  0  0  0  0  0  0  0  0  0
  201.8517  175.3315  156.0952 C   0  0  0  0  0  0  0  0  0  0  0  0
  200.4411  183.5764  160.1993 H   0  0  0  0  0  0  0  0  0  0  0  0
  202.6022  179.1054  158.5838 H   0  0  0  0  0  0  0  0  0  0  0  0
  201.2313  183.4272  156.7334 H   0  0  0  0  0  0  0  0  0  0  0  0
  200.5158  181.4091  155.5461 H   0  0  0  0  0  0  0  0  0  0  0  0
  202.7943  183.1493  160.2924 H   0  0  0  0  0  0  0  0  0  0  0  0
  203.0303  184.1556  158.8968 H   0  0  0  0  0  0  0  0  0  0  0  0
  201.0880  185.5884  158.1315 H   0  0  0  0  0  0  0  0  0  0  0  0
  199.9849  184.2516  157.9062 H   0  0  0  0  0  0  0  0  0  0  0  0
  198.6664  183.0026  158.6044 H   0  0  0  0  0  0  0  0  0  0  0  0
  196.8426  181.6971  159.1788 H   0  0  0  0  0  0  0  0  0  0  0  0
  196.1767  183.0152  160.0510 H   0  0  0  0  0  0  0  0  0  0  0  0
  195.8697  184.0479  157.4985 H   0  0  0  0  0  0  0  0  0  0  0  0
  196.0413  182.3973  157.0574 H   0  0  0  0  0  0  0  0  0  0  0  0
  194.4705  181.1644  159.5022 H   0  0  0  0  0  0  0  0  0  0  0  0
  194.3048  180.7531  157.7815 H   0  0  0  0  0  0  0  0  0  0  0  0
  192.9001  181.3053  158.6853 H   0  0  0  0  0  0  0  0  0  0  0  0
  194.1610  183.7822  160.0917 H   0  0  0  0  0  0  0  0  0  0  0  0
  192.6497  183.6982  159.2073 H   0  0  0  0  0  0  0  0  0  0  0  0
  193.9353  184.8314  158.6889 H   0  0  0  0  0  0  0  0  0  0  0  0
  195.8662  185.1536  159.8442 H   0  0  0  0  0  0  0  0  0  0  0  0
  195.9791  187.5568  160.1814 H   0  0  0  0  0  0  0  0  0  0  0  0
  198.1264  188.7978  159.8212 H   0  0  0  0  0  0  0  0  0  0  0  0
  200.1502  187.5445  159.1054 H   0  0  0  0  0  0  0  0  0  0  0  0
  201.9426  177.5211  157.5060 H   0  0  0  0  0  0  0  0  0  0  0  0
  200.2230  177.4626  157.1272 H   0  0  0  0  0  0  0  0  0  0  0  0
  201.5075  178.0060  153.9768 H   0  0  0  0  0  0  0  0  0  0  0  0
  202.1364  176.2890  152.3277 H   0  0  0  0  0  0  0  0  0  0  0  0
  202.5898  173.9502  153.0645 H   0  0  0  0  0  0  0  0  0  0  0  0
  202.4149  173.3456  155.4705 H   0  0  0  0  0  0  0  0  0  0  0  0
  201.7830  175.0763  157.1433 H   0  0  0  0  0  0  0  0  0  0  0  0
  193.9408  182.9507  157.2584 H   0  0  0  0  0  0  0  0  0  0  0  0
  201.3432  184.9097  160.4875 H   0  0  0  0  0  0  0  0  0  0  0  0
  1  2  1  0
  1 23  1  0
  2  3  1  0
  2  7  2  0
  3  4  2  0
  3 31  1  0
  4  5  1  0
  5  6  2  0
  5  8  1  0
  6  7  1  0
  6 32  1  0
  7 33  1  0
  8  9  1  0
  8 34  1  1
  8 35  1  0
  9 10  1  0
  9 30  1  1
  9 61  1  0
 10 11  1  0
 10 36  1  6
 10 37  1  0
 11 12  1  0
 11 22  2  0
 12 13  1  0
 12 19  2  0
 13 14  1  0
 13 38  1  0
 14 15  1  0
 14 39  1  1
 14 40  1  0
 15 16  1  0
 15 41  1  6
 15 42  1  0
 16 17  1  0
 16 18  1  0
 16 60  1  6
 17 43  1  1
 17 44  1  0
 17 45  1  0
 18 46  1  1
 18 47  1  0
 18 48  1  0
 19 20  1  0
 19 49  1  0
 20 21  2  0
 20 50  1  0
 21 22  1  0
 21 51  1  0
 22 52  1  0
 23 24  1  0
 23 53  1  1
 23 54  1  0
 24 25  2  0
 24 29  1  0
 25 26  1  0
 25 55  1  0
 26 27  2  0
 26 56  1  0
 27 28  1  0
 27 57  1  0
 28 29  2  0
 28 58  1  0
 29 59  1  0
M  CHG  2   9   1  16   1
M  END
>  <s_epik_cmdline>  (50) 
J2VwaWtfcHl0aG9uJywgJy1waCcsICc3LjAwMDAwMCcsICctcGh0JywgJzIuMDAwMDAwJywgJy1tcycsICcxNicsICctdG4nLCAnOCcsICctbWEnLCAnMjAwJywgJy1pbWFlJywgJzxpbmZpbGUubWFlPicsICctb21hZScsICc8b3V0ZmlsZS5tYWU+Jw==

>  <s_epik_input>  (50) 
W2NIXTFbY0hdW2NIXVtjSF1bY0hdYzFbQ0gyXU9jMltjSF1uYyhbY0hdW2NIXTIpW0NIMl1bTkhdW0NIMl1jM2MoW2NIXVtjSF1bY0hdW2NIXTMpW05IXVtDSDJdW0NIMl1OKFtDSDNdKVtDSDNd

>  <s_i_glide_gridfile>  (50) 
ATP-Grid

>  <s_lp_Force_Field>  (50) 
OPLS_2005

>  <s_lp_Variant>  (50) 
m_270004bbb____25289958____24721296-1

>  <s_lp_label>  (50) 
1166_sdstereoexpander_1_neutralizer_1_epik_1_stereoizer_1

>  <s_m_source_file>  (50) 
ATP-VSW-LIGPREP-001-in.maegz

>  <s_sd_BIOSOLVEIT.INFINISEE\_QUERY\_NAME>  (50) 
Ref-Lig

>  <s_sd_BIOSOLVEIT.INFINISEE\_QUERY\_SMILES>  (50) 
S(c1nc2c(cc1C[NH2+]Cc3ccc(cc3)C[NH+](C)C)cccc2)Cc4ccccc4

>  <s_sd_BIOSOLVEIT.INFINISEE\_REACTION\_NAME>  (50) 
m_270004bbb

>  <s_sd_BIOSOLVEIT.INFINISEE\_REAGENT1\_SMILES>  (50) 
[R1*]NCc1c(NCCN(C)C)cccc1

>  <s_sd_BIOSOLVEIT.INFINISEE\_REAGENT2\_SMILES>  (50) 
[R1*]Cc1ncc(OCc2ccccc2)cc1

>  <s_sd_BIOSOLVEIT.INFINISEE\_SPACE>  (50) 
REALSpace_44bn_2023-08

>  <s_vsw_compound_code>  (50) 
37281

>  <s_vsw_variant>  (50) 
37281-1

>  <r_epik_Charging_Adjusted_Penalty>  (50) 
0.16150969318607999

>  <r_epik_Ionization_Penalty>  (50) 
0.081500000000000003

>  <r_epik_Ionization_Penalty_Charging>  (50) 
0.0814

>  <r_epik_Ionization_Penalty_Neutral>  (50) 
0.0001

>  <r_epik_State_Penalty>  (50) 
0.080100000000000005

>  <r_i_docking_score>  (50) 
-4.35664288623461

>  <r_i_glide_ecoul>  (50) 
-11.375002861022899

>  <r_i_glide_eff_state_penalty>  (50) 
0.080100000000000005

>  <r_i_glide_einternal>  (50) 
6.7949233055114702

>  <r_i_glide_emodel>  (50) 
-54.490266450459202

>  <r_i_glide_energy>  (50) 
-40.440466880798297

>  <r_i_glide_erotb>  (50) 
1.2672037968318799

>  <r_i_glide_esite>  (50) 
-0.10000000000000001

>  <r_i_glide_evdw>  (50) 
-29.065464019775401

>  <r_i_glide_gscore>  (50) 
-4.4367428862346099

>  <r_i_glide_hbond>  (50) 
-0.20000000000000001

>  <r_i_glide_ligand_efficiency>  (50) 
-0.150229065042573

>  <r_i_glide_ligand_efficiency_ln>  (50) 
-0.99756074601616795

>  <r_i_glide_ligand_efficiency_sa>  (50) 
-0.46155128371929

>  <r_i_glide_lipo>  (50) 
-1.51172132565155

>  <r_i_glide_metal>  (50) 
-0

>  <r_i_glide_rewards>  (50) 
-0.73270172727272598

>  <r_lp_Energy>  (50) 
27.778396000000001

>  <r_lp_tautomer_probability>  (50) 
1

>  <r_qp_ACxDN^.5/SA>  (50) 
0.0108658

>  <r_qp_CIQPlogS>  (50) 
-3.593

>  <r_qp_EA(eV)>  (50) 
0.087999999999999995

>  <r_qp_FISA>  (50) 
34.241

>  <r_qp_FOSA>  (50) 
301.69099999999997

>  <r_qp_IP(eV)>  (50) 
7.8819999999999997

>  <r_qp_Jm>  (50) 
0.0043793297489081902

>  <r_qp_PISA>  (50) 
477.51999999999998

>  <r_qp_PSA>  (50) 
49.948

>  <r_qp_PercentHumanOralAbsorption>  (50) 
100

>  <r_qp_QPPCaco>  (50) 
291.73899999999998

>  <r_qp_QPPMDCK>  (50) 
159.89400000000001

>  <r_qp_QPlogBB>  (50) 
0.29099999999999998

>  <r_qp_QPlogHERG>  (50) 
-9.3130000000000006

>  <r_qp_QPlogKhsa>  (50) 
0.69099999999999995

>  <r_qp_QPlogKp>  (50) 
-3.5369999999999999

>  <r_qp_QPlogPC16>  (50) 
15.763

>  <r_qp_QPlogPo/w>  (50) 
4.6390000000000002

>  <r_qp_QPlogPoct>  (50) 
21.760999999999999

>  <r_qp_QPlogPw>  (50) 
11.817

>  <r_qp_QPlogS>  (50) 
-4.4130000000000003

>  <r_qp_QPpolrz>  (50) 
48.006

>  <r_qp_SASA>  (50) 
813.45100000000002

>  <r_qp_SAamideO>  (50) 
0

>  <r_qp_SAfluorine>  (50) 
0

>  <r_qp_WPSA>  (50) 
0

>  <r_qp_accptHB>  (50) 
6.25

>  <r_qp_dip^2/V>  (50) 
0.0066217999999999997

>  <r_qp_dipole>  (50) 
3.0619999999999998

>  <r_qp_donorHB>  (50) 
2

>  <r_qp_glob>  (50) 
0.74962810000000002

>  <r_qp_mol_MW>  (50) 
390.52699999999999

>  <r_qp_volume>  (50) 
1415.855

>  <r_sd_BIOSOLVEIT.INFINISEE\_FTREES\_SIMILARITY>  (50) 
0.91200000000000003

>  <r_sd_BIOSOLVEIT.LOGP>  (50) 
1.4805999999999999

>  <r_sd_BIOSOLVEIT.MOLECULAR\_WEIGHT>  (50) 
392.54399999999998

>  <r_sd_BIOSOLVEIT.TPSA>  (50) 
55.200000000000003

>  <i_epik_Tot_Q>  (50) 
2

>  <i_epik_Tot_abs_Q>  (50) 
2

>  <i_f3d_flags>  (50) 
0

>  <i_i_glide_confnum>  (50) 
6

>  <i_i_glide_lignum>  (50) 
288

>  <i_i_glide_posenum>  (50) 
10

>  <i_i_glide_rotatable_bonds>  (50) 
11

>  <i_lp_mmshare_version>  (50) 
65135

>  <i_m_ct_format>  (50) 
2

>  <i_m_source_file_index>  (50) 
1166

>  <i_qp_#NandO>  (50) 
5

>  <i_qp_#acid>  (50) 
0

>  <i_qp_#amide>  (50) 
0

>  <i_qp_#amidine>  (50) 
0

>  <i_qp_#amine>  (50) 
2

>  <i_qp_#in34>  (50) 
0

>  <i_qp_#in56>  (50) 
18

>  <i_qp_#metab>  (50) 
11

>  <i_qp_#nonHatm>  (50) 
29

>  <i_qp_#noncon>  (50) 
0

>  <i_qp_#ringatoms>  (50) 
18

>  <i_qp_#rotor>  (50) 
11

>  <i_qp_#rtvFG>  (50) 
0

>  <i_qp_#stars>  (50) 
4

>  <i_qp_CNS>  (50) 
1

>  <i_qp_HumanOralAbsorption>  (50) 
1

>  <i_qp_RuleOfFive>  (50) 
0

>  <i_qp_RuleOfThree>  (50) 
1

>  <i_sd_BIOSOLVEIT.INFINISEE\_REAGENT1\_NAME>  (50) 
25289958

>  <i_sd_BIOSOLVEIT.INFINISEE\_REAGENT2\_NAME>  (50) 
24721296

>  <i_sd_BIOSOLVEIT.INFINISEE\_RESULT\_RANK>  (50) 
37915

>  <i_sd_version>  (50) 
0

>  <b_lp_Chiralities_Consistent>  (50) 
1

>  <b_sd_chiral_flag>  (50) 
0

>  <acquisition_id>  (50) 
ATP-ACQ-0050

>  <canonical_id>  (50) 
ATP-HTVS-B278BB2953A5

>  <compound_code>  (50) 
37281

>  <title>  (50) 
m_270004bbb____25289958____24721296

>  <variant>  (50) 
37281-1

>  <selection_arm>  (50) 
descriptor_diversity

>  <priority>  (50) 
P1

>  <wave>  (50) 
2

>  <source_file>  (50) 
运行/运行/ATP-VSW/ATP-VSW-DOCK_HTVS_1-001_lib/ATP-VSW-DOCK_HTVS_1-001_lib

>  <canonical_smiles>  (50) 
C[NH+](C)CCNc1ccccc1C[NH2+]Cc1ccc(OCc2ccccc2)cn1

$$$$
ATP-ACQ-0051
     RDKit          3D

 64 66  0  0  0  0  0  0  0  0999 V2000
  201.8843  178.9526  156.4262 O   0  0  0  0  0  0  0  0  0  0  0  0
  201.7503  178.8470  155.2033 C   0  0  0  0  0  0  0  0  0  0  0  0
  202.5234  179.6584  154.4310 N   0  0  0  0  0  0  0  0  0  0  0  0
  202.2741  179.9897  153.0626 C   0  0  0  0  0  0  0  0  0  0  0  0
  203.0442  179.4016  152.1116 N   0  0  0  0  0  0  0  0  0  0  0  0
  202.7909  179.6717  150.8200 C   0  0  0  0  0  0  0  0  0  0  0  0
  201.7908  180.5566  150.4119 C   0  0  0  0  0  0  0  0  0  0  0  0
  201.0407  181.2293  151.3795 C   0  0  0  0  0  0  0  0  0  0  0  0
  201.2862  180.9481  152.7702 C   0  0  0  0  0  0  0  0  0  0  0  0
  200.5648  181.6100  153.7695 N   0  0  0  0  0  0  0  0  0  0  0  0
  199.3161  182.3109  153.4843 C   0  0  1  0  0  0  0  0  0  0  0  0
  198.4936  182.6057  154.7233 C   0  0  0  0  0  0  0  0  0  0  0  0
  198.0995  183.9283  155.0231 C   0  0  0  0  0  0  0  0  0  0  0  0
  197.3445  184.1932  156.1873 C   0  0  0  0  0  0  0  0  0  0  0  0
  196.9883  183.1360  157.0590 C   0  0  0  0  0  0  0  0  0  0  0  0
  197.4031  181.8222  156.7648 C   0  0  0  0  0  0  0  0  0  0  0  0
  198.1130  181.5587  155.5776 C   0  0  0  0  0  0  0  0  0  0  0  0
  196.1582  183.4036  158.3041 C   0  0  1  0  0  0  0  0  0  0  0  0
  194.7162  183.0782  158.1129 N   0  0  2  0  0  0  0  0  0  0  0  0
  193.8650  183.8245  159.0675 C   0  0  2  0  0  0  0  0  0  0  0  0
  194.4168  181.6281  158.1461 C   0  0  2  0  0  0  0  0  0  0  0  0
  203.7081  180.3162  155.0151 C   0  0  2  0  0  0  0  0  0  0  0  0
  200.6809  177.7945  154.6969 C   0  0  1  0  0  0  0  0  0  0  0  0
  201.3177  176.3819  154.6377 C   0  0  0  0  0  0  0  0  0  0  0  0
  201.1776  175.5598  153.4784 C   0  0  0  0  0  0  0  0  0  0  0  0
  201.6788  174.2539  153.4462 C   0  0  0  0  0  0  0  0  0  0  0  0
  202.3281  173.7137  154.5650 C   0  0  0  0  0  0  0  0  0  0  0  0
  202.4754  174.4974  155.7284 C   0  0  0  0  0  0  0  0  0  0  0  0
  201.9605  175.8138  155.7634 C   0  0  0  0  0  0  0  0  0  0  0  0
  199.5180  177.7269  155.7137 C   0  0  2  0  0  0  0  0  0  0  0  0
  199.9560  178.1701  153.3656 C   0  0  2  0  0  0  0  0  0  0  0  0
  203.3633  179.1172  150.0901 H   0  0  0  0  0  0  0  0  0  0  0  0
  201.5640  180.6923  149.3562 H   0  0  0  0  0  0  0  0  0  0  0  0
  200.2579  181.8885  151.0816 H   0  0  0  0  0  0  0  0  0  0  0  0
  200.6605  181.2466  154.7171 H   0  0  0  0  0  0  0  0  0  0  0  0
  199.5483  183.2440  152.9703 H   0  0  0  0  0  0  0  0  0  0  0  0
  198.7064  181.7065  152.8114 H   0  0  0  0  0  0  0  0  0  0  0  0
  198.3781  184.7366  154.3631 H   0  0  0  0  0  0  0  0  0  0  0  0
  197.0475  185.2106  156.3991 H   0  0  0  0  0  0  0  0  0  0  0  0
  197.1648  181.0019  157.4249 H   0  0  0  0  0  0  0  0  0  0  0  0
  198.3596  180.5451  155.3271 H   0  0  0  0  0  0  0  0  0  0  0  0
  196.5627  182.8558  159.1589 H   0  0  0  0  0  0  0  0  0  0  0  0
  196.2764  184.4624  158.5564 H   0  0  0  0  0  0  0  0  0  0  0  0
  194.1198  183.5649  160.0974 H   0  0  0  0  0  0  0  0  0  0  0  0
  192.8105  183.5942  158.9091 H   0  0  0  0  0  0  0  0  0  0  0  0
  193.9924  184.9006  158.9639 H   0  0  0  0  0  0  0  0  0  0  0  0
  194.7260  181.1848  159.0981 H   0  0  0  0  0  0  0  0  0  0  0  0
  194.9151  181.1103  157.3311 H   0  0  0  0  0  0  0  0  0  0  0  0
  193.3490  181.4451  158.0106 H   0  0  0  0  0  0  0  0  0  0  0  0
  204.2718  180.9040  154.2855 H   0  0  0  0  0  0  0  0  0  0  0  0
  204.4092  179.5769  155.4246 H   0  0  0  0  0  0  0  0  0  0  0  0
  203.4312  181.0035  155.8222 H   0  0  0  0  0  0  0  0  0  0  0  0
  200.6635  175.8895  152.5993 H   0  0  0  0  0  0  0  0  0  0  0  0
  201.5375  173.6670  152.5469 H   0  0  0  0  0  0  0  0  0  0  0  0
  202.7071  172.7016  154.5229 H   0  0  0  0  0  0  0  0  0  0  0  0
  202.9654  174.0698  156.5965 H   0  0  0  0  0  0  0  0  0  0  0  0
  202.0609  176.3728  156.6924 H   0  0  0  0  0  0  0  0  0  0  0  0
  199.8033  177.4353  156.7253 H   0  0  0  0  0  0  0  0  0  0  0  0
  198.7653  177.0173  155.3805 H   0  0  0  0  0  0  0  0  0  0  0  0
  199.0102  178.6744  155.8016 H   0  0  0  0  0  0  0  0  0  0  0  0
  200.6626  178.1050  152.5139 H   0  0  0  0  0  0  0  0  0  0  0  0
  199.5522  179.1753  153.4140 H   0  0  0  0  0  0  0  0  0  0  0  0
  199.1601  177.4783  153.1344 H   0  0  0  0  0  0  0  0  0  0  0  0
  194.4449  183.3569  157.1756 H   0  0  0  0  0  0  0  0  0  0  0  0
  1  2  2  0
  2  3  1  0
 23  2  1  1
  3  4  1  0
  3 22  1  0
  4  5  1  0
  4  9  2  0
  5  6  2  0
  6  7  1  0
  6 32  1  0
  7  8  2  0
  7 33  1  0
  8  9  1  0
  8 34  1  0
  9 10  1  0
 10 11  1  0
 10 35  1  0
 11 12  1  0
 11 36  1  6
 11 37  1  0
 12 13  1  0
 12 17  2  0
 13 14  2  0
 13 38  1  0
 14 15  1  0
 14 39  1  0
 15 16  2  0
 15 18  1  0
 16 17  1  0
 16 40  1  0
 17 41  1  0
 18 19  1  0
 18 42  1  1
 18 43  1  0
 19 20  1  0
 19 21  1  0
 19 64  1  6
 20 44  1  1
 20 45  1  0
 20 46  1  0
 21 47  1  1
 21 48  1  0
 21 49  1  0
 22 50  1  6
 22 51  1  0
 22 52  1  0
 23 24  1  0
 23 30  1  0
 23 31  1  0
 24 25  2  0
 24 29  1  0
 25 26  1  0
 25 53  1  0
 26 27  2  0
 26 54  1  0
 27 28  1  0
 27 55  1  0
 28 29  2  0
 28 56  1  0
 29 57  1  0
 30 58  1  1
 30 59  1  0
 30 60  1  0
 31 61  1  6
 31 62  1  0
 31 63  1  0
M  CHG  1  19   1
M  END
>  <s_epik_cmdline>  (51) 
J2VwaWtfcHl0aG9uJywgJy1waCcsICc3LjAwMDAwMCcsICctcGh0JywgJzIuMDAwMDAwJywgJy1tcycsICcxNicsICctdG4nLCAnOCcsICctbWEnLCAnMjAwJywgJy1pbWFlJywgJzxpbmZpbGUubWFlPicsICctb21hZScsICc8b3V0ZmlsZS5tYWU+Jw==

>  <s_epik_input>  (51) 
W2NIXTFbY0hdW2NIXVtjSF1bY0hdYzFDKFtDSDNdKShbQ0gzXSlDKD1PKU4oW0NIM10pYzJuW2NIXVtjSF1bY0hdYzJbTkhdW0NIMl1jM1tjSF1bY0hdYyhbY0hdW2NIXTMpW0NIMl1OKFtDSDNdKVtDSDNd

>  <s_i_glide_gridfile>  (51) 
ATP-Grid

>  <s_lp_Force_Field>  (51) 
OPLS_2005

>  <s_lp_Variant>  (51) 
rxn502a____EMOL882167____EMOL45980405____EMOL50155899-1

>  <s_lp_label>  (51) 
2913_sdstereoexpander_1_neutralizer_1_epik_1_stereoizer_1

>  <s_m_source_file>  (51) 
ATP-VSW-LIGPREP-001-in.maegz

>  <s_sd_BIOSOLVEIT.INFINISEE\_QUERY\_NAME>  (51) 
Ref-Lig

>  <s_sd_BIOSOLVEIT.INFINISEE\_QUERY\_SMILES>  (51) 
S(c1nc2c(cc1C[NH2+]Cc3ccc(cc3)C[NH+](C)C)cccc2)Cc4ccccc4

>  <s_sd_BIOSOLVEIT.INFINISEE\_REACTION\_NAME>  (51) 
rxn502a

>  <s_sd_BIOSOLVEIT.INFINISEE\_REAGENT1\_NAME>  (51) 
EMOL882167

>  <s_sd_BIOSOLVEIT.INFINISEE\_REAGENT1\_SMILES>  (51) 
O=C(O)C(c1ccccc1)(C)C

>  <s_sd_BIOSOLVEIT.INFINISEE\_REAGENT2\_NAME>  (51) 
EMOL45980405

>  <s_sd_BIOSOLVEIT.INFINISEE\_REAGENT2\_SMILES>  (51) 
Ic1c(nccc1)NC

>  <s_sd_BIOSOLVEIT.INFINISEE\_REAGENT3\_NAME>  (51) 
EMOL50155899

>  <s_sd_BIOSOLVEIT.INFINISEE\_REAGENT3\_SMILES>  (51) 
N(Cc1ccc(cc1)CN)(C)C

>  <s_sd_BIOSOLVEIT.INFINISEE\_SPACE>  (51) 
eXplore_7tr_2022-12

>  <s_vsw_compound_code>  (51) 
93185

>  <s_vsw_variant>  (51) 
93185-1

>  <r_epik_Charging_Adjusted_Penalty>  (51) 
0.098688987526384206

>  <r_epik_Ionization_Penalty>  (51) 
0.059499999999999997

>  <r_epik_Ionization_Penalty_Charging>  (51) 
0.039199999999999999

>  <r_epik_Ionization_Penalty_Neutral>  (51) 
0.020299999999999999

>  <r_epik_State_Penalty>  (51) 
0.059499999999999997

>  <r_i_docking_score>  (51) 
-2.9578912720345798

>  <r_i_glide_ecoul>  (51) 
-6.13498783111572

>  <r_i_glide_eff_state_penalty>  (51) 
0.059499999999999997

>  <r_i_glide_einternal>  (51) 
4.8577113151550302

>  <r_i_glide_emodel>  (51) 
-38.646768859785702

>  <r_i_glide_energy>  (51) 
-32.093335151672399

>  <r_i_glide_erotb>  (51) 
0.79354665791498202

>  <r_i_glide_esite>  (51) 
-0.095423030989449598

>  <r_i_glide_evdw>  (51) 
-25.958347320556602

>  <r_i_glide_gscore>  (51) 
-3.0173912720345801

>  <r_i_glide_hbond>  (51) 
-0.18773763791586201

>  <r_i_glide_ligand_efficiency>  (51) 
-0.095415847484986605

>  <r_i_glide_ligand_efficiency_ln>  (51) 
-0.66709513032481604

>  <r_i_glide_ligand_efficiency_sa>  (51) 
-0.29973749687776702

>  <r_i_glide_lipo>  (51) 
-0.74756458398542902

>  <r_i_glide_metal>  (51) 
-0

>  <r_i_glide_rewards>  (51) 
-0.56204713636363501

>  <r_lp_Energy>  (51) 
43.338039000000002

>  <r_lp_tautomer_probability>  (51) 
0.999999999999999

>  <r_qp_ACxDN^.5/SA>  (51) 
0.0094658999999999993

>  <r_qp_CIQPlogS>  (51) 
-4.9100000000000001

>  <r_qp_EA(eV)>  (51) 
0.24199999999999999

>  <r_qp_FISA>  (51) 
33.271000000000001

>  <r_qp_FOSA>  (51) 
359.33199999999999

>  <r_qp_IP(eV)>  (51) 
8.5129999999999999

>  <r_qp_Jm>  (51) 
0.0670432643442056

>  <r_qp_PISA>  (51) 
346.88999999999999

>  <r_qp_PSA>  (51) 
46.780999999999999

>  <r_qp_PercentHumanOralAbsorption>  (51) 
100

>  <r_qp_QPPCaco>  (51) 
1194.7829999999999

>  <r_qp_QPPMDCK>  (51) 
663.39200000000005

>  <r_qp_QPlogBB>  (51) 
0.14799999999999999

>  <r_qp_QPlogHERG>  (51) 
-6.8700000000000001

>  <r_qp_QPlogKhsa>  (51) 
0.68700000000000006

>  <r_qp_QPlogKp>  (51) 
-2.2050000000000001

>  <r_qp_QPlogPC16>  (51) 
14.085000000000001

>  <r_qp_QPlogPo/w>  (51) 
4.7679999999999998

>  <r_qp_QPlogPoct>  (51) 
21.07

>  <r_qp_QPlogPw>  (51) 
10.68

>  <r_qp_QPlogS>  (51) 
-4.5880000000000001

>  <r_qp_QPpolrz>  (51) 
47.923000000000002

>  <r_qp_SASA>  (51) 
739.49300000000005

>  <r_qp_SAamideO>  (51) 
0

>  <r_qp_SAfluorine>  (51) 
0

>  <r_qp_WPSA>  (51) 
0

>  <r_qp_accptHB>  (51) 
7

>  <r_qp_dip^2/V>  (51) 
0.019574999999999999

>  <r_qp_dipole>  (51) 
5.2290000000000001

>  <r_qp_donorHB>  (51) 
1

>  <r_qp_glob>  (51) 
0.81719980000000003

>  <r_qp_mol_MW>  (51) 
416.565

>  <r_qp_volume>  (51) 
1396.838

>  <r_sd_BIOSOLVEIT.INFINISEE\_FTREES\_SIMILARITY>  (51) 
0.90400000000000003

>  <r_sd_BIOSOLVEIT.LOGP>  (51) 
3.2787999999999999

>  <r_sd_BIOSOLVEIT.MOLECULAR\_WEIGHT>  (51) 
417.57400000000001

>  <r_sd_BIOSOLVEIT.TPSA>  (51) 
49.670000000000002

>  <i_epik_Tot_Q>  (51) 
1

>  <i_epik_Tot_abs_Q>  (51) 
1

>  <i_f3d_flags>  (51) 
0

>  <i_i_glide_confnum>  (51) 
4

>  <i_i_glide_lignum>  (51) 
1357

>  <i_i_glide_posenum>  (51) 
8

>  <i_i_glide_rotatable_bonds>  (51) 
9

>  <i_lp_mmshare_version>  (51) 
65135

>  <i_m_ct_format>  (51) 
2

>  <i_m_source_file_index>  (51) 
2913

>  <i_qp_#NandO>  (51) 
5

>  <i_qp_#acid>  (51) 
0

>  <i_qp_#amide>  (51) 
0

>  <i_qp_#amidine>  (51) 
0

>  <i_qp_#amine>  (51) 
1

>  <i_qp_#in34>  (51) 
0

>  <i_qp_#in56>  (51) 
18

>  <i_qp_#metab>  (51) 
9

>  <i_qp_#nonHatm>  (51) 
31

>  <i_qp_#noncon>  (51) 
0

>  <i_qp_#ringatoms>  (51) 
18

>  <i_qp_#rotor>  (51) 
8

>  <i_qp_#rtvFG>  (51) 
0

>  <i_qp_#stars>  (51) 
1

>  <i_qp_CNS>  (51) 
1

>  <i_qp_HumanOralAbsorption>  (51) 
3

>  <i_qp_RuleOfFive>  (51) 
0

>  <i_qp_RuleOfThree>  (51) 
1

>  <i_sd_BIOSOLVEIT.INFINISEE\_RESULT\_RANK>  (51) 
76455

>  <i_sd_version>  (51) 
0

>  <b_lp_Chiralities_Consistent>  (51) 
1

>  <b_sd_chiral_flag>  (51) 
0

>  <acquisition_id>  (51) 
ATP-ACQ-0051

>  <canonical_id>  (51) 
ATP-HTVS-DD1946FA5AC5

>  <compound_code>  (51) 
93185

>  <title>  (51) 
rxn502a____EMOL882167____EMOL45980405____EMOL50155899

>  <variant>  (51) 
93185-1

>  <selection_arm>  (51) 
score_calibration

>  <priority>  (51) 
P1

>  <wave>  (51) 
2

>  <source_file>  (51) 
运行/运行/ATP-VSW/ATP-VSW-DOCK_HTVS_1-001_lib/ATP-VSW-DOCK_HTVS_1-001_lib

>  <canonical_smiles>  (51) 
CN(C(=O)C(C)(C)c1ccccc1)c1ncccc1NCc1ccc(C[NH+](C)C)cc1

$$$$
ATP-ACQ-0052
     RDKit          3D

 56 59  0  0  0  0  0  0  0  0999 V2000
  199.5524  186.1449  146.5899 Cl  0  0  0  0  0  0  0  0  0  0  0  0
  198.8163  185.4025  147.9665 C   0  0  0  0  0  0  0  0  0  0  0  0
  199.2644  185.7081  149.2687 C   0  0  0  0  0  0  0  0  0  0  0  0
  198.6639  185.0980  150.3881 C   0  0  0  0  0  0  0  0  0  0  0  0
  197.6081  184.1778  150.2151 C   0  0  0  0  0  0  0  0  0  0  0  0
  197.1550  183.8868  148.9091 C   0  0  0  0  0  0  0  0  0  0  0  0
  197.7578  184.4921  147.7899 C   0  0  0  0  0  0  0  0  0  0  0  0
  196.9576  183.5188  151.4344 C   0  0  1  0  0  0  0  0  0  0  0  0
  195.5473  183.4901  151.3306 O   0  0  0  0  0  0  0  0  0  0  0  0
  197.4697  182.0806  151.6439 C   0  0  0  0  0  0  0  0  0  0  0  0
  197.6590  181.3548  150.6680 O   0  0  0  0  0  0  0  0  0  0  0  0
  197.6261  181.6859  152.9236 N   0  0  0  0  0  0  0  0  0  0  0  0
  198.2415  180.5009  153.4230 C   0  0  0  0  0  0  0  0  0  0  0  0
  198.9635  179.6753  152.6299 N   0  0  0  0  0  0  0  0  0  0  0  0
  199.5643  178.5785  153.1351 C   0  0  0  0  0  0  0  0  0  0  0  0
  199.4840  178.2519  154.5111 C   0  0  0  0  0  0  0  0  0  0  0  0
  198.7374  179.0897  155.3582 C   0  0  0  0  0  0  0  0  0  0  0  0
  198.1186  180.2358  154.8144 C   0  0  0  0  0  0  0  0  0  0  0  0
  197.3519  181.0845  155.7149 C   0  0  0  0  0  0  0  0  0  0  0  0
  196.7312  181.7747  156.5069 C   0  0  0  0  0  0  0  0  0  0  0  0
  195.9944  182.5985  157.4671 C   0  0  1  0  0  0  0  0  0  0  0  0
  194.7612  181.8369  157.7282 N   0  0  2  0  0  0  0  0  0  0  0  0
  196.7734  182.9309  158.7590 C   0  0  1  0  0  0  0  0  0  0  0  0
  196.4362  184.3035  159.3216 C   0  0  0  0  0  0  0  0  0  0  0  0
  195.1904  184.5615  159.9338 C   0  0  0  0  0  0  0  0  0  0  0  0
  194.9087  185.8446  160.4522 C   0  0  0  0  0  0  0  0  0  0  0  0
  193.7150  186.0953  161.0340 F   0  0  0  0  0  0  0  0  0  0  0  0
  195.8677  186.8688  160.3652 C   0  0  0  0  0  0  0  0  0  0  0  0
  197.1086  186.6192  159.7517 C   0  0  0  0  0  0  0  0  0  0  0  0
  197.3918  185.3412  159.2322 C   0  0  0  0  0  0  0  0  0  0  0  0
  200.0866  177.0817  155.0146 C   0  0  0  0  0  0  0  0  0  0  0  0
  200.8028  176.2359  154.1458 C   0  0  0  0  0  0  0  0  0  0  0  0
  200.9083  176.5606  152.7798 C   0  0  0  0  0  0  0  0  0  0  0  0
  200.2950  177.7267  152.2846 C   0  0  0  0  0  0  0  0  0  0  0  0
  194.2775  181.7933  156.8225 H   0  0  0  0  0  0  0  0  0  0  0  0
  194.1644  182.3171  158.3728 H   0  0  0  0  0  0  0  0  0  0  0  0
  200.0687  186.4140  149.4105 H   0  0  0  0  0  0  0  0  0  0  0  0
  199.0182  185.3348  151.3791 H   0  0  0  0  0  0  0  0  0  0  0  0
  196.3556  183.1764  148.7634 H   0  0  0  0  0  0  0  0  0  0  0  0
  197.4062  184.2569  146.7960 H   0  0  0  0  0  0  0  0  0  0  0  0
  197.2067  184.1351  152.3007 H   0  0  0  0  0  0  0  0  0  0  0  0
  195.1662  183.4706  152.2137 H   0  0  0  0  0  0  0  0  0  0  0  0
  197.3054  182.3254  153.6353 H   0  0  0  0  0  0  0  0  0  0  0  0
  198.6392  178.8550  156.4124 H   0  0  0  0  0  0  0  0  0  0  0  0
  195.7382  183.5093  156.9281 H   0  0  0  0  0  0  0  0  0  0  0  0
  196.5916  182.1802  159.5283 H   0  0  0  0  0  0  0  0  0  0  0  0
  197.8502  182.8933  158.5785 H   0  0  0  0  0  0  0  0  0  0  0  0
  194.4460  183.7874  160.0150 H   0  0  0  0  0  0  0  0  0  0  0  0
  195.6536  187.8469  160.7691 H   0  0  0  0  0  0  0  0  0  0  0  0
  197.8485  187.4050  159.6877 H   0  0  0  0  0  0  0  0  0  0  0  0
  198.3549  185.1632  158.7708 H   0  0  0  0  0  0  0  0  0  0  0  0
  199.9931  176.8211  156.0602 H   0  0  0  0  0  0  0  0  0  0  0  0
  201.2712  175.3379  154.5236 H   0  0  0  0  0  0  0  0  0  0  0  0
  201.4573  175.9113  152.1102 H   0  0  0  0  0  0  0  0  0  0  0  0
  200.3679  177.9695  151.2356 H   0  0  0  0  0  0  0  0  0  0  0  0
  195.0080  180.8926  158.0431 H   0  0  0  0  0  0  0  0  0  0  0  0
  1  2  1  0
  2  3  1  0
  2  7  2  0
  3  4  2  0
  3 37  1  0
  4  5  1  0
  4 38  1  0
  5  6  2  0
  5  8  1  0
  6  7  1  0
  6 39  1  0
  7 40  1  0
  8  9  1  0
  8 10  1  0
  8 41  1  1
  9 42  1  0
 10 11  2  0
 10 12  1  0
 12 13  1  0
 12 43  1  0
 13 14  2  0
 13 18  1  0
 14 15  1  0
 15 16  1  0
 15 34  2  0
 16 17  1  0
 16 31  2  0
 17 18  2  0
 17 44  1  0
 18 19  1  0
 19 20  3  0
 20 21  1  0
 21 22  1  0
 21 23  1  0
 21 45  1  6
 22 35  1  6
 22 36  1  0
 22 56  1  0
 23 24  1  0
 23 46  1  1
 23 47  1  0
 24 25  1  0
 24 30  2  0
 25 26  2  0
 25 48  1  0
 26 27  1  0
 26 28  1  0
 28 29  2  0
 28 49  1  0
 29 30  1  0
 29 50  1  0
 30 51  1  0
 31 32  1  0
 31 52  1  0
 32 33  2  0
 32 53  1  0
 33 34  1  0
 33 54  1  0
 34 55  1  0
M  CHG  1  22   1
M  END
>  <s_epik_cmdline>  (52) 
J2VwaWtfcHl0aG9uJywgJy1waCcsICc3LjAwMDAwMCcsICctcGh0JywgJzIuMDAwMDAwJywgJy1tcycsICcxNicsICctdG4nLCAnOCcsICctbWEnLCAnMjAwJywgJy1pbWFlJywgJzxpbmZpbGUubWFlPicsICctb21hZScsICc8b3V0ZmlsZS5tYWU+Jw==

>  <s_epik_input>  (52) 
Q2xjMVtjSF1bY0hdYyhbY0hdW2NIXTEpW0NAQEhdKFtPSF0pQyg9TylbTkhdYyhuMiljKFtjSF1jKGMyMylbY0hdW2NIXVtjSF1bY0hdMylDI0NbQ0BASF0oW05IMl0pW0NIMl1jNFtjSF1jKEYpW2NIXVtjSF1bY0hdNA==

>  <s_i_glide_gridfile>  (52) 
ATP-Grid

>  <s_lp_Force_Field>  (52) 
OPLS_2005

>  <s_lp_Variant>  (52) 
rxn503b____EMOL491815____EMOL44466703____EMOL313110234-7

>  <s_lp_label>  (52) 
2609_sdstereoexpander_3_neutralizer_1_epik_2_stereoizer_1

>  <s_m_source_file>  (52) 
ATP-VSW-LIGPREP-001-in.maegz

>  <s_sd_BIOSOLVEIT.INFINISEE\_QUERY\_NAME>  (52) 
Ref-Lig

>  <s_sd_BIOSOLVEIT.INFINISEE\_QUERY\_SMILES>  (52) 
S(c1nc2c(cc1C[NH2+]Cc3ccc(cc3)C[NH+](C)C)cccc2)Cc4ccccc4

>  <s_sd_BIOSOLVEIT.INFINISEE\_REACTION\_NAME>  (52) 
rxn503b

>  <s_sd_BIOSOLVEIT.INFINISEE\_REAGENT1\_NAME>  (52) 
EMOL491815

>  <s_sd_BIOSOLVEIT.INFINISEE\_REAGENT1\_SMILES>  (52) 
Clc1ccc(cc1)C(O)C(=O)O

>  <s_sd_BIOSOLVEIT.INFINISEE\_REAGENT2\_NAME>  (52) 
EMOL44466703

>  <s_sd_BIOSOLVEIT.INFINISEE\_REAGENT2\_SMILES>  (52) 
Brc1c(nc2c(c1)cccc2)N

>  <s_sd_BIOSOLVEIT.INFINISEE\_REAGENT3\_NAME>  (52) 
EMOL313110234

>  <s_sd_BIOSOLVEIT.INFINISEE\_REAGENT3\_SMILES>  (52) 
Fc1cc(ccc1)CC(N)C#C

>  <s_sd_BIOSOLVEIT.INFINISEE\_SPACE>  (52) 
eXplore_7tr_2022-12

>  <s_vsw_compound_code>  (52) 
83457

>  <s_vsw_variant>  (52) 
83457-7

>  <r_epik_Charging_Adjusted_Penalty>  (52) 
1.22591159016581

>  <r_epik_Ionization_Penalty>  (52) 
0.61370000000000002

>  <r_epik_Ionization_Penalty_Charging>  (52) 
0.61299999999999999

>  <r_epik_Ionization_Penalty_Neutral>  (52) 
0.00080000000000000004

>  <r_epik_State_Penalty>  (52) 
0.61299999999999999

>  <r_i_docking_score>  (52) 
-6.2689748187417296

>  <r_i_glide_ecoul>  (52) 
-16.7718410491943

>  <r_i_glide_eff_state_penalty>  (52) 
0.61299999999999999

>  <r_i_glide_einternal>  (52) 
9.3843774795532209

>  <r_i_glide_emodel>  (52) 
-82.464376881500499

>  <r_i_glide_energy>  (52) 
-53.4098796844482

>  <r_i_glide_erotb>  (52) 
0.37684678745037198

>  <r_i_glide_esite>  (52) 
-0.107165149729572

>  <r_i_glide_evdw>  (52) 
-36.638038635253899

>  <r_i_glide_gscore>  (52) 
-6.88197481874173

>  <r_i_glide_hbond>  (52) 
-0.36514872516555802

>  <r_i_glide_ligand_efficiency>  (52) 
-0.184381612315933

>  <r_i_glide_ligand_efficiency_ln>  (52) 
-1.3849923762476599

>  <r_i_glide_ligand_efficiency_sa>  (52) 
-0.59732484649513995

>  <r_i_glide_lipo>  (52) 
-2.2086180396748998

>  <r_i_glide_metal>  (52) 
-0

>  <r_i_glide_rewards>  (52) 
-0.23021160248022601

>  <r_lp_Energy>  (52) 
24.827504000000001

>  <r_qp_ACxDN^.5/SA>  (52) 
0.016679599999999999

>  <r_qp_CIQPlogS>  (52) 
-6.3499999999999996

>  <r_qp_EA(eV)>  (52) 
1.048

>  <r_qp_FISA>  (52) 
136.19499999999999

>  <r_qp_FOSA>  (52) 
45.216000000000001

>  <r_qp_IP(eV)>  (52) 
8.7509999999999994

>  <r_qp_Jm>  (52) 
0.00180927780837379

>  <r_qp_PISA>  (52) 
468.76100000000002

>  <r_qp_PSA>  (52) 
90.802000000000007

>  <r_qp_PercentHumanOralAbsorption>  (52) 
89.986999999999995

>  <r_qp_QPPCaco>  (52) 
126.258

>  <r_qp_QPPMDCK>  (52) 
189.50700000000001

>  <r_qp_QPlogBB>  (52) 
-0.72999999999999998

>  <r_qp_QPlogHERG>  (52) 
-7.5410000000000004

>  <r_qp_QPlogKhsa>  (52) 
0.60699999999999998

>  <r_qp_QPlogKp>  (52) 
-3.577

>  <r_qp_QPlogPC16>  (52) 
16.440999999999999

>  <r_qp_QPlogPo/w>  (52) 
4.3440000000000003

>  <r_qp_QPlogPoct>  (52) 
26.478000000000002

>  <r_qp_QPlogPw>  (52) 
15.635999999999999

>  <r_qp_QPlogS>  (52) 
-4.8410000000000002

>  <r_qp_QPpolrz>  (52) 
48.32

>  <r_qp_SASA>  (52) 
743.423

>  <r_qp_SAamideO>  (52) 
0

>  <r_qp_SAfluorine>  (52) 
41.182000000000002

>  <r_qp_WPSA>  (52) 
93.251000000000005

>  <r_qp_accptHB>  (52) 
6.2000000000000002

>  <r_qp_dip^2/V>  (52) 
0.036093699999999999

>  <r_qp_dipole>  (52) 
7.093

>  <r_qp_donorHB>  (52) 
4

>  <r_qp_glob>  (52) 
0.81166970000000005

>  <r_qp_mol_MW>  (52) 
473.93299999999999

>  <r_qp_volume>  (52) 
1393.721

>  <r_sd_BIOSOLVEIT.INFINISEE\_FTREES\_SIMILARITY>  (52) 
0.91100000000000003

>  <r_sd_BIOSOLVEIT.LOGP>  (52) 
3.9041000000000001

>  <r_sd_BIOSOLVEIT.MOLECULAR\_WEIGHT>  (52) 
474.94099999999997

>  <r_sd_BIOSOLVEIT.TPSA>  (52) 
89.859999999999999

>  <i_epik_Tot_Q>  (52) 
1

>  <i_epik_Tot_abs_Q>  (52) 
1

>  <i_f3d_flags>  (52) 
0

>  <i_i_glide_confnum>  (52) 
5

>  <i_i_glide_lignum>  (52) 
1094

>  <i_i_glide_posenum>  (52) 
8

>  <i_i_glide_rotatable_bonds>  (52) 
9

>  <i_lp_mmshare_version>  (52) 
65135

>  <i_m_ct_format>  (52) 
2

>  <i_m_source_file_index>  (52) 
2609

>  <i_qp_#NandO>  (52) 
5

>  <i_qp_#acid>  (52) 
0

>  <i_qp_#amide>  (52) 
0

>  <i_qp_#amidine>  (52) 
0

>  <i_qp_#amine>  (52) 
1

>  <i_qp_#in34>  (52) 
0

>  <i_qp_#in56>  (52) 
22

>  <i_qp_#metab>  (52) 
5

>  <i_qp_#nonHatm>  (52) 
34

>  <i_qp_#noncon>  (52) 
0

>  <i_qp_#ringatoms>  (52) 
22

>  <i_qp_#rotor>  (52) 
9

>  <i_qp_#rtvFG>  (52) 
0

>  <i_qp_#stars>  (52) 
1

>  <i_qp_CNS>  (52) 
-1

>  <i_qp_HumanOralAbsorption>  (52) 
3

>  <i_qp_RuleOfFive>  (52) 
0

>  <i_qp_RuleOfThree>  (52) 
0

>  <i_sd_BIOSOLVEIT.INFINISEE\_RESULT\_RANK>  (52) 
42288

>  <i_sd_version>  (52) 
0

>  <b_lp_Chiralities_Consistent>  (52) 
1

>  <b_sd_chiral_flag>  (52) 
0

>  <acquisition_id>  (52) 
ATP-ACQ-0052

>  <canonical_id>  (52) 
ATP-HTVS-54A1786C1F00

>  <compound_code>  (52) 
83457

>  <title>  (52) 
rxn503b____EMOL491815____EMOL44466703____EMOL313110234

>  <variant>  (52) 
83457-7

>  <selection_arm>  (52) 
exploitation

>  <priority>  (52) 
P1

>  <wave>  (52) 
2

>  <source_file>  (52) 
运行/运行/ATP-VSW/ATP-VSW-DOCK_HTVS_1-001_lib/ATP-VSW-DOCK_HTVS_1-001_lib

>  <canonical_smiles>  (52) 
[NH3+][C@H](C#Cc1cc2ccccc2nc1NC(=O)[C@H](O)c1ccc(Cl)cc1)Cc1cccc(F)c1

$$$$
ATP-ACQ-0053
     RDKit          3D

 55 57  0  0  0  0  0  0  0  0999 V2000
  201.9188  172.3796  151.7525 Cl  0  0  0  0  0  0  0  0  0  0  0  0
  201.9843  173.4179  153.1302 C   0  0  0  0  0  0  0  0  0  0  0  0
  201.1480  174.5453  153.1976 C   0  0  0  0  0  0  0  0  0  0  0  0
  201.1840  175.3854  154.3251 C   0  0  0  0  0  0  0  0  0  0  0  0
  202.0455  175.0942  155.4104 C   0  0  0  0  0  0  0  0  0  0  0  0
  202.0495  175.8224  156.5772 O   0  0  0  0  0  0  0  0  0  0  0  0
  200.8125  176.3785  157.0105 C   0  0  1  0  0  0  0  0  0  0  0  0
  200.7446  177.8330  156.6714 C   0  0  0  0  0  0  0  0  0  0  0  0
  201.5442  179.0988  157.6045 S   0  0  0  0  0  0  0  0  0  0  0  0
  200.8088  180.2950  156.5716 C   0  0  0  0  0  0  0  0  0  0  0  0
  199.9943  179.7208  155.6292 C   0  0  0  0  0  0  0  0  0  0  0  0
  199.9496  178.3265  155.7170 N   0  0  0  0  0  0  0  0  0  0  0  0
  199.1693  180.4334  154.6003 C   0  0  1  0  0  0  0  0  0  0  0  0
  198.2983  181.5192  155.0121 N   0  0  0  0  0  0  0  0  0  0  0  0
  197.3581  181.0904  156.0428 C   0  0  1  0  0  0  0  0  0  0  0  0
  196.5737  182.3077  156.5860 C   0  0  2  0  0  0  0  0  0  0  0  0
  197.5100  183.3711  157.1418 C   0  0  0  0  0  0  0  0  0  0  0  0
  198.1494  183.1699  158.3913 C   0  0  0  0  0  0  0  0  0  0  0  0
  198.9939  184.1454  158.9273 C   0  0  0  0  0  0  0  0  0  0  0  0
  199.2116  185.3518  158.2274 C   0  0  0  0  0  0  0  0  0  0  0  0
  200.1868  186.5885  158.9329 Cl  0  0  0  0  0  0  0  0  0  0  0  0
  198.5863  185.5601  156.9857 C   0  0  0  0  0  0  0  0  0  0  0  0
  197.7516  184.5617  156.4382 C   0  0  0  0  0  0  0  0  0  0  0  0
  195.5178  181.8626  157.6344 C   0  0  1  0  0  0  0  0  0  0  0  0
  194.6763  182.9742  158.1599 N   0  0  2  0  0  0  0  0  0  0  0  0
  195.2834  183.7636  159.2864 C   0  0  2  0  0  0  0  0  0  0  0  0
  193.3051  182.5279  158.5104 C   0  0  2  0  0  0  0  0  0  0  0  0
  202.9128  173.9884  155.3175 C   0  0  0  0  0  0  0  0  0  0  0  0
  202.8736  173.1484  154.1879 C   0  0  0  0  0  0  0  0  0  0  0  0
  197.7821  181.8579  154.2133 H   0  0  0  0  0  0  0  0  0  0  0  0
  200.4595  174.7557  152.3881 H   0  0  0  0  0  0  0  0  0  0  0  0
  200.5120  176.2329  154.3227 H   0  0  0  0  0  0  0  0  0  0  0  0
  199.9640  175.8684  156.5730 H   0  0  0  0  0  0  0  0  0  0  0  0
  200.7552  176.2560  158.0903 H   0  0  0  0  0  0  0  0  0  0  0  0
  201.0015  181.3462  156.7297 H   0  0  0  0  0  0  0  0  0  0  0  0
  199.8470  180.8545  153.8546 H   0  0  0  0  0  0  0  0  0  0  0  0
  198.5578  179.7147  154.0572 H   0  0  0  0  0  0  0  0  0  0  0  0
  196.6870  180.3177  155.6542 H   0  0  0  0  0  0  0  0  0  0  0  0
  197.8997  180.6513  156.8778 H   0  0  0  0  0  0  0  0  0  0  0  0
  196.0383  182.7448  155.7459 H   0  0  0  0  0  0  0  0  0  0  0  0
  198.0399  182.2441  158.9045 H   0  0  0  0  0  0  0  0  0  0  0  0
  199.4242  184.0074  159.9064 H   0  0  0  0  0  0  0  0  0  0  0  0
  198.7128  186.4992  156.4703 H   0  0  0  0  0  0  0  0  0  0  0  0
  197.2415  184.7539  155.5022 H   0  0  0  0  0  0  0  0  0  0  0  0
  194.8705  181.1508  157.1233 H   0  0  0  0  0  0  0  0  0  0  0  0
  195.9637  181.3110  158.4606 H   0  0  0  0  0  0  0  0  0  0  0  0
  195.4919  183.0765  160.1250 H   0  0  0  0  0  0  0  0  0  0  0  0
  194.5518  184.5043  159.6652 H   0  0  0  0  0  0  0  0  0  0  0  0
  196.2146  184.2596  158.9884 H   0  0  0  0  0  0  0  0  0  0  0  0
  193.3780  181.7455  159.2525 H   0  0  0  0  0  0  0  0  0  0  0  0
  192.7548  182.1218  157.6508 H   0  0  0  0  0  0  0  0  0  0  0  0
  192.7354  183.3687  158.8905 H   0  0  0  0  0  0  0  0  0  0  0  0
  203.5718  173.7789  156.1454 H   0  0  0  0  0  0  0  0  0  0  0  0
  203.5143  172.2820  154.1488 H   0  0  0  0  0  0  0  0  0  0  0  0
  194.5283  183.5752  157.3672 H   0  0  0  0  0  0  0  0  0  0  0  0
  1  2  1  0
  2  3  1  0
  2 29  2  0
  3  4  2  0
  3 31  1  0
  4  5  1  0
  4 32  1  0
  5  6  1  0
  5 28  2  0
  6  7  1  0
  7  8  1  0
  7 33  1  6
  7 34  1  0
  8  9  1  0
  8 12  2  0
  9 10  1  0
 10 11  2  0
 10 35  1  0
 11 12  1  0
 11 13  1  0
 13 14  1  0
 13 36  1  6
 13 37  1  0
 14 15  1  0
 14 30  1  0
 15 16  1  0
 15 38  1  6
 15 39  1  0
 16 17  1  0
 16 24  1  0
 16 40  1  6
 17 18  1  0
 17 23  2  0
 18 19  2  0
 18 41  1  0
 19 20  1  0
 19 42  1  0
 20 21  1  0
 20 22  2  0
 22 23  1  0
 22 43  1  0
 23 44  1  0
 24 25  1  0
 24 45  1  6
 24 46  1  0
 25 26  1  0
 25 27  1  0
 25 55  1  6
 26 47  1  1
 26 48  1  0
 26 49  1  0
 27 50  1  1
 27 51  1  0
 27 52  1  0
 28 29  1  0
 28 53  1  0
 29 54  1  0
M  CHG  1  25   1
M  END
>  <s_epik_cmdline>  (53) 
J2VwaWtfcHl0aG9uJywgJy1waCcsICc3LjAwMDAwMCcsICctcGh0JywgJzIuMDAwMDAwJywgJy1tcycsICcxNicsICctdG4nLCAnOCcsICctbWEnLCAnMjAwJywgJy1pbWFlJywgJzxpbmZpbGUubWFlPicsICctb21hZScsICc8b3V0ZmlsZS5tYWU+Jw==

>  <s_epik_input>  (53) 
Q2xjMVtjSF1bY0hdYyhbY0hdW2NIXTEpT1tDSDJdYzJzW2NIXWMobjIpW0NIMl1bTkhdW0NIMl1bQ0BASF0oW0NIMl1OKFtDSDNdKVtDSDNdKWMzW2NIXVtjSF1jKENsKVtjSF1bY0hdMw==

>  <s_i_glide_gridfile>  (53) 
ATP-Grid

>  <s_lp_Force_Field>  (53) 
OPLS_2005

>  <s_lp_Variant>  (53) 
m_270004bbb____23846716____7548984-4

>  <s_lp_label>  (53) 
1508_sdstereoexpander_2_neutralizer_1_epik_2_stereoizer_1

>  <s_m_source_file>  (53) 
ATP-VSW-LIGPREP-003-in.maegz

>  <s_sd_BIOSOLVEIT.INFINISEE\_QUERY\_NAME>  (53) 
Ref-Lig

>  <s_sd_BIOSOLVEIT.INFINISEE\_QUERY\_SMILES>  (53) 
S(c1nc2c(cc1C[NH2+]Cc3ccc(cc3)C[NH+](C)C)cccc2)Cc4ccccc4

>  <s_sd_BIOSOLVEIT.INFINISEE\_REACTION\_NAME>  (53) 
m_270004bbb

>  <s_sd_BIOSOLVEIT.INFINISEE\_REAGENT1\_SMILES>  (53) 
[R1*]NCC(c1ccc(Cl)cc1)CN(C)C

>  <s_sd_BIOSOLVEIT.INFINISEE\_REAGENT2\_SMILES>  (53) 
[R1*]CC=1N=C(SC1)COc2ccc(Cl)cc2

>  <s_sd_BIOSOLVEIT.INFINISEE\_SPACE>  (53) 
REALSpace_44bn_2023-08

>  <s_vsw_compound_code>  (53) 
48227

>  <s_vsw_variant>  (53) 
48227-4

>  <r_epik_Charging_Adjusted_Penalty>  (53) 
1.4808842197182599

>  <r_epik_Ionization_Penalty>  (53) 
1.4576

>  <r_epik_Ionization_Penalty_Charging>  (53) 
0.0025999999999999999

>  <r_epik_Ionization_Penalty_Neutral>  (53) 
1.4550000000000001

>  <r_epik_State_Penalty>  (53) 
1.4782999999999999

>  <r_i_docking_score>  (53) 
-1.8845040735073899

>  <r_i_glide_ecoul>  (53) 
-6.3995089530944798

>  <r_i_glide_eff_state_penalty>  (53) 
1.4782999999999999

>  <r_i_glide_einternal>  (53) 
8.5699272155761701

>  <r_i_glide_emodel>  (53) 
-46.158236843581001

>  <r_i_glide_energy>  (53) 
-38.740096569061301

>  <r_i_glide_erotb>  (53) 
0.78735478411663995

>  <r_i_glide_esite>  (53) 
-0.085622024812353204

>  <r_i_glide_evdw>  (53) 
-32.340587615966797

>  <r_i_glide_gscore>  (53) 
-3.3628040735073901

>  <r_i_glide_hbond>  (53) 
-0.071599704689025906

>  <r_i_glide_ligand_efficiency>  (53) 
-0.064982899086461696

>  <r_i_glide_ligand_efficiency_ln>  (53) 
-0.43150364593305501

>  <r_i_glide_ligand_efficiency_sa>  (53) 
-0.19964805402109101

>  <r_i_glide_lipo>  (53) 
-1.0848409952692299

>  <r_i_glide_metal>  (53) 
-0

>  <r_i_glide_rewards>  (53) 
-0.33114040909090797

>  <r_lp_Energy>  (53) 
20.871117999999999

>  <r_lp_tautomer_probability>  (53) 
1

>  <r_qp_ACxDN^.5/SA>  (53) 
0.0083174000000000008

>  <r_qp_CIQPlogS>  (53) 
-5.0010000000000003

>  <r_qp_EA(eV)>  (53) 
0.79400000000000004

>  <r_qp_FISA>  (53) 
16.074000000000002

>  <r_qp_FOSA>  (53) 
259.67599999999999

>  <r_qp_IP(eV)>  (53) 
8.7899999999999991

>  <r_qp_Jm>  (53) 
0.0173571858694671

>  <r_qp_PISA>  (53) 
259.84800000000001

>  <r_qp_PSA>  (53) 
35.905000000000001

>  <r_qp_PercentHumanOralAbsorption>  (53) 
100

>  <r_qp_QPPCaco>  (53) 
433.77600000000001

>  <r_qp_QPPMDCK>  (53) 
1750.2139999999999

>  <r_qp_QPlogBB>  (53) 
0.98699999999999999

>  <r_qp_QPlogHERG>  (53) 
-6.8410000000000002

>  <r_qp_QPlogKhsa>  (53) 
0.63900000000000001

>  <r_qp_QPlogKp>  (53) 
-4.0650000000000004

>  <r_qp_QPlogPC16>  (53) 
13.647

>  <r_qp_QPlogPo/w>  (53) 
4.8540000000000001

>  <r_qp_QPlogPoct>  (53) 
19.210999999999999

>  <r_qp_QPlogPw>  (53) 
8.2370000000000001

>  <r_qp_QPlogS>  (53) 
-3.3490000000000002

>  <r_qp_QPpolrz>  (53) 
42.399000000000001

>  <r_qp_SASA>  (53) 
691.322

>  <r_qp_SAamideO>  (53) 
0

>  <r_qp_SAfluorine>  (53) 
0

>  <r_qp_WPSA>  (53) 
155.72399999999999

>  <r_qp_accptHB>  (53) 
5.75

>  <r_qp_dip^2/V>  (53) 
0.035256700000000002

>  <r_qp_dipole>  (53) 
6.7999999999999998

>  <r_qp_donorHB>  (53) 
1

>  <r_qp_glob>  (53) 
0.83822770000000002

>  <r_qp_mol_MW>  (53) 
450.42500000000001

>  <r_qp_volume>  (53) 
1311.644

>  <r_sd_BIOSOLVEIT.INFINISEE\_FTREES\_SIMILARITY>  (53) 
0.90700000000000003

>  <r_sd_BIOSOLVEIT.LOGP>  (53) 
3.0206

>  <r_sd_BIOSOLVEIT.MOLECULAR\_WEIGHT>  (53) 
452.44600000000003

>  <r_sd_BIOSOLVEIT.TPSA>  (53) 
43.170000000000002

>  <i_epik_Tot_Q>  (53) 
1

>  <i_epik_Tot_abs_Q>  (53) 
1

>  <i_f3d_flags>  (53) 
0

>  <i_i_glide_confnum>  (53) 
9

>  <i_i_glide_lignum>  (53) 
575

>  <i_i_glide_posenum>  (53) 
16

>  <i_i_glide_rotatable_bonds>  (53) 
10

>  <i_lp_mmshare_version>  (53) 
65135

>  <i_m_ct_format>  (53) 
2

>  <i_m_source_file_index>  (53) 
1508

>  <i_qp_#NandO>  (53) 
4

>  <i_qp_#acid>  (53) 
0

>  <i_qp_#amide>  (53) 
0

>  <i_qp_#amidine>  (53) 
0

>  <i_qp_#amine>  (53) 
2

>  <i_qp_#in34>  (53) 
0

>  <i_qp_#in56>  (53) 
17

>  <i_qp_#metab>  (53) 
7

>  <i_qp_#nonHatm>  (53) 
29

>  <i_qp_#noncon>  (53) 
0

>  <i_qp_#ringatoms>  (53) 
17

>  <i_qp_#rotor>  (53) 
10

>  <i_qp_#rtvFG>  (53) 
0

>  <i_qp_#stars>  (53) 
0

>  <i_qp_CNS>  (53) 
2

>  <i_qp_HumanOralAbsorption>  (53) 
3

>  <i_qp_RuleOfFive>  (53) 
0

>  <i_qp_RuleOfThree>  (53) 
1

>  <i_sd_BIOSOLVEIT.INFINISEE\_REAGENT1\_NAME>  (53) 
23846716

>  <i_sd_BIOSOLVEIT.INFINISEE\_REAGENT2\_NAME>  (53) 
7548984

>  <i_sd_BIOSOLVEIT.INFINISEE\_RESULT\_RANK>  (53) 
59938

>  <i_sd_version>  (53) 
0

>  <b_lp_Chiralities_Consistent>  (53) 
1

>  <b_sd_chiral_flag>  (53) 
0

>  <acquisition_id>  (53) 
ATP-ACQ-0053

>  <canonical_id>  (53) 
ATP-HTVS-E85D4903F0A1

>  <compound_code>  (53) 
48227

>  <title>  (53) 
m_270004bbb____23846716____7548984

>  <variant>  (53) 
48227-4

>  <selection_arm>  (53) 
descriptor_diversity

>  <priority>  (53) 
P1

>  <wave>  (53) 
2

>  <source_file>  (53) 
运行/运行/ATP-VSW/ATP-VSW-DOCK_HTVS_1-003_lib/ATP-VSW-DOCK_HTVS_1-003_lib.mae

>  <canonical_smiles>  (53) 
C[NH+](C)C[C@H](CNCc1csc(COc2ccc(Cl)cc2)n1)c1ccc(Cl)cc1

$$$$
ATP-ACQ-0054
     RDKit          3D

 56 59  0  0  0  0  0  0  0  0999 V2000
  204.2565  181.0880  152.7597 O   0  0  0  0  0  0  0  0  0  0  0  0
  203.3862  180.3197  152.0182 C   0  0  0  0  0  0  0  0  0  0  0  0
  202.2030  180.0925  152.7642 C   0  0  0  0  0  0  0  0  0  0  0  0
  201.1951  179.3129  152.1485 C   0  0  0  0  0  0  0  0  0  0  0  0
  201.3733  178.7941  150.8475 C   0  0  0  0  0  0  0  0  0  0  0  0
  202.5669  179.0383  150.1367 C   0  0  0  0  0  0  0  0  0  0  0  0
  203.5881  179.8085  150.7242 C   0  0  0  0  0  0  0  0  0  0  0  0
  202.3860  180.7704  154.0252 C   0  0  0  0  0  0  0  0  0  0  0  0
  203.6369  181.3385  153.9537 C   0  0  0  0  0  0  0  0  0  0  0  0
  201.4499  180.8304  155.2014 C   0  0  1  0  0  0  0  0  0  0  0  0
  200.1896  181.2899  154.6265 N   0  0  0  0  0  0  0  0  0  0  0  0
  199.0668  181.5801  155.4165 C   0  0  0  0  0  0  0  0  0  0  0  0
  199.1705  181.9337  156.7809 C   0  0  0  0  0  0  0  0  0  0  0  0
  198.0167  182.2250  157.5288 C   0  0  0  0  0  0  0  0  0  0  0  0
  196.7518  182.1482  156.9176 C   0  0  0  0  0  0  0  0  0  0  0  0
  195.5197  182.4464  157.7269 N   0  0  1  0  0  0  0  0  0  0  0  0
  195.5505  183.7280  158.4705 C   0  0  1  0  0  0  0  0  0  0  0  0
  194.3442  183.8625  159.3996 C   0  0  1  0  0  0  0  0  0  0  0  0
  194.3983  185.0905  160.0900 O   0  0  0  0  0  0  0  0  0  0  0  0
  196.6285  181.8012  155.5601 C   0  0  0  0  0  0  0  0  0  0  0  0
  197.7913  181.5186  154.8126 C   0  0  0  0  0  0  0  0  0  0  0  0
  201.3114  179.4947  155.8108 C   0  0  0  0  0  0  0  0  0  0  0  0
  201.1212  178.3776  156.2626 C   0  0  0  0  0  0  0  0  0  0  0  0
  200.8185  177.0259  156.7498 C   0  0  1  0  0  0  0  0  0  0  0  0
  200.5828  176.1684  155.6304 O   0  0  0  0  0  0  0  0  0  0  0  0
  201.5074  175.2189  155.2424 C   0  0  0  0  0  0  0  0  0  0  0  0
  201.2889  174.5887  153.9948 C   0  0  0  0  0  0  0  0  0  0  0  0
  202.1617  173.5853  153.5260 C   0  0  0  0  0  0  0  0  0  0  0  0
  203.2715  173.2039  154.3020 C   0  0  0  0  0  0  0  0  0  0  0  0
  203.4953  173.8225  155.5449 C   0  0  0  0  0  0  0  0  0  0  0  0
  202.6216  174.8174  156.0177 C   0  0  0  0  0  0  0  0  0  0  0  0
  200.2804  179.1039  152.6829 H   0  0  0  0  0  0  0  0  0  0  0  0
  200.5917  178.2014  150.3953 H   0  0  0  0  0  0  0  0  0  0  0  0
  202.6965  178.6315  149.1431 H   0  0  0  0  0  0  0  0  0  0  0  0
  204.5105  180.0024  150.1976 H   0  0  0  0  0  0  0  0  0  0  0  0
  204.2092  181.9302  154.6525 H   0  0  0  0  0  0  0  0  0  0  0  0
  201.8157  181.5390  155.9486 H   0  0  0  0  0  0  0  0  0  0  0  0
  200.0177  180.9966  153.6765 H   0  0  0  0  0  0  0  0  0  0  0  0
  200.1286  181.9809  157.2758 H   0  0  0  0  0  0  0  0  0  0  0  0
  198.1166  182.4751  158.5732 H   0  0  0  0  0  0  0  0  0  0  0  0
  194.7207  182.4891  157.1004 H   0  0  0  0  0  0  0  0  0  0  0  0
  196.4521  183.8050  159.0797 H   0  0  0  0  0  0  0  0  0  0  0  0
  195.5898  184.5489  157.7560 H   0  0  0  0  0  0  0  0  0  0  0  0
  193.4061  183.7970  158.8513 H   0  0  0  0  0  0  0  0  0  0  0  0
  194.3676  183.0539  160.1324 H   0  0  0  0  0  0  0  0  0  0  0  0
  194.1205  185.7766  159.4998 H   0  0  0  0  0  0  0  0  0  0  0  0
  195.6567  181.7527  155.0886 H   0  0  0  0  0  0  0  0  0  0  0  0
  197.6945  181.2525  153.7712 H   0  0  0  0  0  0  0  0  0  0  0  0
  201.5989  176.7231  157.4445 H   0  0  0  0  0  0  0  0  0  0  0  0
  199.8901  177.0871  157.3193 H   0  0  0  0  0  0  0  0  0  0  0  0
  200.4374  174.8694  153.3878 H   0  0  0  0  0  0  0  0  0  0  0  0
  201.9823  173.1014  152.5741 H   0  0  0  0  0  0  0  0  0  0  0  0
  203.9424  172.4299  153.9541 H   0  0  0  0  0  0  0  0  0  0  0  0
  204.3345  173.5260  156.1514 H   0  0  0  0  0  0  0  0  0  0  0  0
  202.8371  175.2324  156.9885 H   0  0  0  0  0  0  0  0  0  0  0  0
  195.3529  181.6826  158.3673 H   0  0  0  0  0  0  0  0  0  0  0  0
  1  2  1  0
  1  9  1  0
  2  3  1  0
  2  7  2  0
  3  4  2  0
  3  8  1  0
  4  5  1  0
  4 32  1  0
  5  6  2  0
  5 33  1  0
  6  7  1  0
  6 34  1  0
  7 35  1  0
  8  9  2  0
  8 10  1  0
  9 36  1  0
 10 11  1  0
 10 22  1  0
 10 37  1  1
 11 12  1  0
 11 38  1  0
 12 13  1  0
 12 21  2  0
 13 14  2  0
 13 39  1  0
 14 15  1  0
 14 40  1  0
 15 16  1  0
 15 20  2  0
 16 17  1  0
 16 41  1  6
 16 56  1  0
 17 18  1  0
 17 42  1  1
 17 43  1  0
 18 19  1  0
 18 44  1  6
 18 45  1  0
 19 46  1  0
 20 21  1  0
 20 47  1  0
 21 48  1  0
 22 23  3  0
 23 24  1  0
 24 25  1  0
 24 49  1  1
 24 50  1  0
 25 26  1  0
 26 27  2  0
 26 31  1  0
 27 28  1  0
 27 51  1  0
 28 29  2  0
 28 52  1  0
 29 30  1  0
 29 53  1  0
 30 31  2  0
 30 54  1  0
 31 55  1  0
M  CHG  1  16   1
M  END
>  <s_epik_cmdline>  (54) 
J2VwaWtfcHl0aG9uJywgJy1waCcsICc3LjAwMDAwMCcsICctcGh0JywgJzIuMDAwMDAwJywgJy1tcycsICcxNicsICctdG4nLCAnOCcsICctbWEnLCAnMjAwJywgJy1pbWFlJywgJzxpbmZpbGUubWFlPicsICctb21hZScsICc8b3V0ZmlsZS5tYWU+Jw==

>  <s_epik_input>  (54) 
W09IXVtDSDJdW0NIMl1bTkhdYyhbY0hdW2NIXTEpW2NIXVtjSF1jMVtOSF1bQ0BIXShjKFtjSF1vMiljKGMyMylbY0hdW2NIXVtjSF1bY0hdMylDI0NbQ0gyXU9jNFtjSF1bY0hdW2NIXVtjSF1bY0hdNA==

>  <s_i_glide_gridfile>  (54) 
ATP-Grid

>  <s_lp_Force_Field>  (54) 
OPLS_2005

>  <s_lp_Variant>  (54) 
rxn403____EMOL8314610____EMOL24201912____EMOL530791-4

>  <s_lp_label>  (54) 
2254_sdstereoexpander_2_neutralizer_1_epik_2_stereoizer_1

>  <s_m_source_file>  (54) 
ATP-VSW-LIGPREP-001-in.maegz

>  <s_sd_BIOSOLVEIT.INFINISEE\_QUERY\_NAME>  (54) 
Ref-Lig

>  <s_sd_BIOSOLVEIT.INFINISEE\_QUERY\_SMILES>  (54) 
S(c1nc2c(cc1C[NH2+]Cc3ccc(cc3)C[NH+](C)C)cccc2)Cc4ccccc4

>  <s_sd_BIOSOLVEIT.INFINISEE\_REACTION\_NAME>  (54) 
rxn403

>  <s_sd_BIOSOLVEIT.INFINISEE\_REAGENT1\_NAME>  (54) 
EMOL8314610

>  <s_sd_BIOSOLVEIT.INFINISEE\_REAGENT1\_SMILES>  (54) 
OCCNc1ccc(N)cc1

>  <s_sd_BIOSOLVEIT.INFINISEE\_REAGENT2\_NAME>  (54) 
EMOL24201912

>  <s_sd_BIOSOLVEIT.INFINISEE\_REAGENT2\_SMILES>  (54) 
O=CC=1c2c(OC1)cccc2

>  <s_sd_BIOSOLVEIT.INFINISEE\_REAGENT3\_NAME>  (54) 
EMOL530791

>  <s_sd_BIOSOLVEIT.INFINISEE\_REAGENT3\_SMILES>  (54) 
O(c1ccccc1)CC#C

>  <s_sd_BIOSOLVEIT.INFINISEE\_SPACE>  (54) 
eXplore_7tr_2022-12

>  <s_vsw_compound_code>  (54) 
72097

>  <s_vsw_variant>  (54) 
72097-4

>  <r_epik_Charging_Adjusted_Penalty>  (54) 
1.30690819367976

>  <r_epik_Ionization_Penalty>  (54) 
0.39910000000000001

>  <r_epik_Ionization_Penalty_Charging>  (54) 
0.39910000000000001

>  <r_epik_Ionization_Penalty_Neutral>  (54) 
0

>  <r_epik_State_Penalty>  (54) 
0.90780000000000005

>  <r_i_docking_score>  (54) 
-2.9581124675027102

>  <r_i_glide_ecoul>  (54) 
-9.7911233901977504

>  <r_i_glide_eff_state_penalty>  (54) 
0.90780000000000005

>  <r_i_glide_einternal>  (54) 
1.8565878868103001

>  <r_i_glide_emodel>  (54) 
-48.289972144982301

>  <r_i_glide_energy>  (54) 
-34.874304771423297

>  <r_i_glide_erotb>  (54) 
1.0385198835346101

>  <r_i_glide_esite>  (54) 
-0.079906533659511295

>  <r_i_glide_evdw>  (54) 
-25.0831813812256

>  <r_i_glide_gscore>  (54) 
-3.8659124675027101

>  <r_i_glide_hbond>  (54) 
-0.48829705975320697

>  <r_i_glide_ligand_efficiency>  (54) 
-0.095422982822668007

>  <r_i_glide_ligand_efficiency_ln>  (54) 
-0.66714501668170501

>  <r_i_glide_ligand_efficiency_sa>  (54) 
-0.29975991168948202

>  <r_i_glide_lipo>  (54) 
-1.02354868003366

>  <r_i_glide_metal>  (54) 
-0

>  <r_i_glide_rewards>  (54) 
-0.589852499999999

>  <r_lp_Energy>  (54) 
20.123373000000001

>  <r_lp_tautomer_probability>  (54) 
1

>  <r_qp_ACxDN^.5/SA>  (54) 
0.012371099999999999

>  <r_qp_CIQPlogS>  (54) 
-6.6870000000000003

>  <r_qp_EA(eV)>  (54) 
0.38700000000000001

>  <r_qp_FISA>  (54) 
74.921000000000006

>  <r_qp_FOSA>  (54) 
162.00899999999999

>  <r_qp_IP(eV)>  (54) 
8.0540000000000003

>  <r_qp_Jm>  (54) 
2.3901988993093402

>  <r_qp_PISA>  (54) 
456.11099999999999

>  <r_qp_PSA>  (54) 
63.829999999999998

>  <r_qp_PercentHumanOralAbsorption>  (54) 
100

>  <r_qp_QPPCaco>  (54) 
1929.3889999999999

>  <r_qp_QPPMDCK>  (54) 
1006.596

>  <r_qp_QPlogBB>  (54) 
-0.82799999999999996

>  <r_qp_QPlogHERG>  (54) 
-6.4939999999999998

>  <r_qp_QPlogKhsa>  (54) 
0.56000000000000005

>  <r_qp_QPlogKp>  (54) 
-0.23699999999999999

>  <r_qp_QPlogPC16>  (54) 
14.635999999999999

>  <r_qp_QPlogPo/w>  (54) 
4.9779999999999998

>  <r_qp_QPlogPoct>  (54) 
21.16

>  <r_qp_QPlogPw>  (54) 
11.842000000000001

>  <r_qp_QPlogS>  (54) 
-5

>  <r_qp_QPpolrz>  (54) 
42.844000000000001

>  <r_qp_SASA>  (54) 
693.04200000000003

>  <r_qp_SAamideO>  (54) 
0

>  <r_qp_SAfluorine>  (54) 
0

>  <r_qp_WPSA>  (54) 
0

>  <r_qp_accptHB>  (54) 
4.9500000000000002

>  <r_qp_dip^2/V>  (54) 
0.0034643999999999999

>  <r_qp_dipole>  (54) 
2.1160000000000001

>  <r_qp_donorHB>  (54) 
3

>  <r_qp_glob>  (54) 
0.82777469999999997

>  <r_qp_mol_MW>  (54) 
412.48700000000002

>  <r_qp_volume>  (54) 
1291.991

>  <r_sd_BIOSOLVEIT.INFINISEE\_FTREES\_SIMILARITY>  (54) 
0.92600000000000005

>  <r_sd_BIOSOLVEIT.LOGP>  (54) 
5.0726000000000004

>  <r_sd_BIOSOLVEIT.MOLECULAR\_WEIGHT>  (54) 
412.48700000000002

>  <r_sd_BIOSOLVEIT.TPSA>  (54) 
66.659999999999997

>  <i_epik_Tot_Q>  (54) 
1

>  <i_epik_Tot_abs_Q>  (54) 
1

>  <i_f3d_flags>  (54) 
0

>  <i_i_glide_confnum>  (54) 
1

>  <i_i_glide_lignum>  (54) 
777

>  <i_i_glide_posenum>  (54) 
7

>  <i_i_glide_rotatable_bonds>  (54) 
11

>  <i_lp_mmshare_version>  (54) 
65135

>  <i_m_ct_format>  (54) 
2

>  <i_m_source_file_index>  (54) 
2254

>  <i_qp_#NandO>  (54) 
5

>  <i_qp_#acid>  (54) 
0

>  <i_qp_#amide>  (54) 
0

>  <i_qp_#amidine>  (54) 
0

>  <i_qp_#amine>  (54) 
0

>  <i_qp_#in34>  (54) 
0

>  <i_qp_#in56>  (54) 
21

>  <i_qp_#metab>  (54) 
9

>  <i_qp_#nonHatm>  (54) 
31

>  <i_qp_#noncon>  (54) 
0

>  <i_qp_#ringatoms>  (54) 
21

>  <i_qp_#rotor>  (54) 
11

>  <i_qp_#rtvFG>  (54) 
0

>  <i_qp_#stars>  (54) 
2

>  <i_qp_CNS>  (54) 
-1

>  <i_qp_HumanOralAbsorption>  (54) 
3

>  <i_qp_RuleOfFive>  (54) 
0

>  <i_qp_RuleOfThree>  (54) 
1

>  <i_sd_BIOSOLVEIT.INFINISEE\_RESULT\_RANK>  (54) 
7948

>  <i_sd_version>  (54) 
0

>  <b_lp_Chiralities_Consistent>  (54) 
1

>  <b_sd_chiral_flag>  (54) 
0

>  <acquisition_id>  (54) 
ATP-ACQ-0054

>  <canonical_id>  (54) 
ATP-HTVS-EE8A818A3017

>  <compound_code>  (54) 
72097

>  <title>  (54) 
rxn403____EMOL8314610____EMOL24201912____EMOL530791

>  <variant>  (54) 
72097-4

>  <selection_arm>  (54) 
score_calibration

>  <priority>  (54) 
P1

>  <wave>  (54) 
2

>  <source_file>  (54) 
运行/运行/ATP-VSW/ATP-VSW-DOCK_HTVS_1-001_lib/ATP-VSW-DOCK_HTVS_1-001_lib

>  <canonical_smiles>  (54) 
OCC[NH2+]c1ccc(N[C@@H](C#CCOc2ccccc2)c2coc3ccccc23)cc1

$$$$
ATP-ACQ-0055
     RDKit          3D

 47 50  0  0  0  0  0  0  0  0999 V2000
  198.0121  185.3167  157.7507 Cl  0  0  0  0  0  0  0  0  0  0  0  0
  196.8078  185.5840  158.9577 C   0  0  0  0  0  0  0  0  0  0  0  0
  195.6875  184.7225  159.0941 C   0  0  0  0  0  0  0  0  0  0  0  0
  194.7236  185.0150  160.0860 C   0  0  0  0  0  0  0  0  0  0  0  0
  194.8747  186.1373  160.9277 C   0  0  0  0  0  0  0  0  0  0  0  0
  195.9963  186.9814  160.7894 C   0  0  0  0  0  0  0  0  0  0  0  0
  196.9554  186.6966  159.8064 C   0  0  0  0  0  0  0  0  0  0  0  0
  195.5264  183.5059  158.1733 C   0  0  2  0  0  0  0  0  0  0  0  0
  194.2086  183.0049  158.1586 O   0  0  0  0  0  0  0  0  0  0  0  0
  196.4765  182.3426  158.5331 C   0  0  1  0  0  0  0  0  0  0  0  0
  196.6618  181.4379  157.3818 N   0  0  1  0  0  0  0  0  0  0  0  0
  197.6553  181.8863  156.3713 C   0  0  1  0  0  0  0  0  0  0  0  0
  199.0621  181.4984  156.8064 C   0  0  0  0  0  0  0  0  0  0  0  0
  199.8989  182.5147  157.1345 N   0  0  0  0  0  0  0  0  0  0  0  0
  201.1514  182.2036  157.5264 C   0  0  0  0  0  0  0  0  0  0  0  0
  201.6355  180.8831  157.6033 C   0  0  0  0  0  0  0  0  0  0  0  0
  200.7640  179.8279  157.2641 C   0  0  0  0  0  0  0  0  0  0  0  0
  199.4517  180.1431  156.8549 C   0  0  0  0  0  0  0  0  0  0  0  0
  197.3219  181.3870  155.0077 C   0  0  0  0  0  0  0  0  0  0  0  0
  197.4587  182.2794  153.9761 O   0  0  0  0  0  0  0  0  0  0  0  0
  197.1248  181.6042  152.8246 C   0  0  0  0  0  0  0  0  0  0  0  0
  196.7720  180.2697  153.1491 C   0  0  0  0  0  0  0  0  0  0  0  0
  196.4042  179.4288  152.0773 C   0  0  0  0  0  0  0  0  0  0  0  0
  196.3975  179.9025  150.7489 C   0  0  0  0  0  0  0  0  0  0  0  0
  196.7591  181.2368  150.4629 C   0  0  0  0  0  0  0  0  0  0  0  0
  197.1288  182.1010  151.5127 C   0  0  0  0  0  0  0  0  0  0  0  0
  196.9108  180.1520  154.5739 C   0  0  0  0  0  0  0  0  0  0  0  0
  196.9106  180.5089  157.7077 H   0  0  0  0  0  0  0  0  0  0  0  0
  193.8509  184.3872  160.2119 H   0  0  0  0  0  0  0  0  0  0  0  0
  194.1404  186.3554  161.6875 H   0  0  0  0  0  0  0  0  0  0  0  0
  196.1311  187.8328  161.4397 H   0  0  0  0  0  0  0  0  0  0  0  0
  197.8240  187.3323  159.6990 H   0  0  0  0  0  0  0  0  0  0  0  0
  195.7340  183.8391  157.1552 H   0  0  0  0  0  0  0  0  0  0  0  0
  193.9391  182.9123  157.2236 H   0  0  0  0  0  0  0  0  0  0  0  0
  197.4435  182.7145  158.8686 H   0  0  0  0  0  0  0  0  0  0  0  0
  196.0468  181.7903  159.3691 H   0  0  0  0  0  0  0  0  0  0  0  0
  197.6211  182.9795  156.3115 H   0  0  0  0  0  0  0  0  0  0  0  0
  201.7911  183.0393  157.7755 H   0  0  0  0  0  0  0  0  0  0  0  0
  202.6475  180.6823  157.9219 H   0  0  0  0  0  0  0  0  0  0  0  0
  201.0905  178.7996  157.3320 H   0  0  0  0  0  0  0  0  0  0  0  0
  198.7641  179.3445  156.6205 H   0  0  0  0  0  0  0  0  0  0  0  0
  196.1347  178.4061  152.2863 H   0  0  0  0  0  0  0  0  0  0  0  0
  196.1206  179.2393  149.9418 H   0  0  0  0  0  0  0  0  0  0  0  0
  196.7571  181.5876  149.4426 H   0  0  0  0  0  0  0  0  0  0  0  0
  197.4139  183.1224  151.3091 H   0  0  0  0  0  0  0  0  0  0  0  0
  196.7280  179.2656  155.1669 H   0  0  0  0  0  0  0  0  0  0  0  0
  195.7704  181.3155  156.9285 H   0  0  0  0  0  0  0  0  0  0  0  0
  1  2  1  0
  2  3  1  0
  2  7  2  0
  3  4  2  0
  3  8  1  0
  4  5  1  0
  4 29  1  0
  5  6  2  0
  5 30  1  0
  6  7  1  0
  6 31  1  0
  7 32  1  0
  8  9  1  0
  8 10  1  0
  8 33  1  6
  9 34  1  0
 10 11  1  0
 10 35  1  1
 10 36  1  0
 11 12  1  0
 11 28  1  1
 11 47  1  0
 12 13  1  0
 12 19  1  0
 12 37  1  6
 13 14  1  0
 13 18  2  0
 14 15  2  0
 15 16  1  0
 15 38  1  0
 16 17  2  0
 16 39  1  0
 17 18  1  0
 17 40  1  0
 18 41  1  0
 19 20  1  0
 19 27  2  0
 20 21  1  0
 21 22  1  0
 21 26  2  0
 22 23  2  0
 22 27  1  0
 23 24  1  0
 23 42  1  0
 24 25  2  0
 24 43  1  0
 25 26  1  0
 25 44  1  0
 26 45  1  0
 27 46  1  0
M  CHG  1  11   1
M  END
>  <s_epik_cmdline>  (55) 
J2VwaWtfcHl0aG9uJywgJy1waCcsICc3LjAwMDAwMCcsICctcGh0JywgJzIuMDAwMDAwJywgJy1tcycsICcxNicsICctdG4nLCAnOCcsICctbWEnLCAnMjAwJywgJy1pbWFlJywgJzxpbmZpbGUubWFlPicsICctb21hZScsICc8b3V0ZmlsZS5tYWU+Jw==

>  <s_epik_input>  (55) 
W2NIXTFbY0hdW2NIXVtjSF1jKGMxQ2wpW0NASF0oW09IXSlbQ0gyXVtOSF1bQ0BASF0oYzJuW2NIXVtjSF1bY0hdW2NIXTIpYyhvMylbY0hdYyhjMzQpW2NIXVtjSF1bY0hdW2NIXTQ=

>  <s_i_glide_gridfile>  (55) 
ATP-Grid

>  <s_lp_Force_Field>  (55) 
OPLS_2005

>  <s_lp_Variant>  (55) 
m_269862dba____8258832____13192834-4

>  <s_lp_label>  (55) 
1077_sdstereoexpander_4_neutralizer_1_epik_1_stereoizer_1

>  <s_m_source_file>  (55) 
ATP-VSW-LIGPREP-003-in.maegz

>  <s_sd_BIOSOLVEIT.INFINISEE\_QUERY\_NAME>  (55) 
Ref-Lig

>  <s_sd_BIOSOLVEIT.INFINISEE\_QUERY\_SMILES>  (55) 
S(c1nc2c(cc1C[NH2+]Cc3ccc(cc3)C[NH+](C)C)cccc2)Cc4ccccc4

>  <s_sd_BIOSOLVEIT.INFINISEE\_REACTION\_NAME>  (55) 
m_269862dba

>  <s_sd_BIOSOLVEIT.INFINISEE\_REAGENT1\_SMILES>  (55) 
[R1*]NCC(O)c1c(Cl)cccc1

>  <s_sd_BIOSOLVEIT.INFINISEE\_REAGENT2\_SMILES>  (55) 
[R1*]C(c1ncccc1)C=2Oc3c(cccc3)C2

>  <s_sd_BIOSOLVEIT.INFINISEE\_SPACE>  (55) 
REALSpace_44bn_2023-08

>  <s_vsw_compound_code>  (55) 
34435

>  <s_vsw_variant>  (55) 
34435-4

>  <r_epik_Charging_Adjusted_Penalty>  (55) 
0.12574514795471001

>  <r_epik_Ionization_Penalty>  (55) 
0.062899999999999998

>  <r_epik_Ionization_Penalty_Charging>  (55) 
0.062899999999999998

>  <r_epik_Ionization_Penalty_Neutral>  (55) 
0

>  <r_epik_State_Penalty>  (55) 
0.062899999999999998

>  <r_i_docking_score>  (55) 
-6.2552108570632301

>  <r_i_glide_ecoul>  (55) 
-13.7310228347778

>  <r_i_glide_eff_state_penalty>  (55) 
0.062899999999999998

>  <r_i_glide_einternal>  (55) 
5.2208538055419904

>  <r_i_glide_emodel>  (55) 
-70.147561068306203

>  <r_i_glide_energy>  (55) 
-45.928265571594203

>  <r_i_glide_erotb>  (55) 
0.67204726597247899

>  <r_i_glide_esite>  (55) 
-0.10000000000000001

>  <r_i_glide_evdw>  (55) 
-32.197242736816399

>  <r_i_glide_gscore>  (55) 
-6.3181108570632301

>  <r_i_glide_hbond>  (55) 
-0.25280710849308402

>  <r_i_glide_ligand_efficiency>  (55) 
-0.23167447618752701

>  <r_i_glide_ligand_efficiency_ln>  (55) 
-1.45610996231367

>  <r_i_glide_ligand_efficiency_sa>  (55) 
-0.69502342779901904

>  <r_i_glide_lipo>  (55) 
-1.9236929524851301

>  <r_i_glide_metal>  (55) 
-0

>  <r_i_glide_rewards>  (55) 
-1.0441425

>  <r_lp_Energy>  (55) 
13.813374

>  <r_qp_ACxDN^.5/SA>  (55) 
0.0097193999999999996

>  <r_qp_CIQPlogS>  (55) 
-5.1680000000000001

>  <r_qp_EA(eV)>  (55) 
0.26800000000000002

>  <r_qp_FISA>  (55) 
46.103000000000002

>  <r_qp_FOSA>  (55) 
40.274000000000001

>  <r_qp_IP(eV)>  (55) 
8.8379999999999992

>  <r_qp_Jm>  (55) 
0.091964133163759204

>  <r_qp_PISA>  (55) 
542.29999999999995

>  <r_qp_PSA>  (55) 
49.508000000000003

>  <r_qp_PercentHumanOralAbsorption>  (55) 
100

>  <r_qp_QPPCaco>  (55) 
902.83100000000002

>  <r_qp_QPPMDCK>  (55) 
983.12199999999996

>  <r_qp_QPlogBB>  (55) 
0.191

>  <r_qp_QPlogHERG>  (55) 
-8.1359999999999992

>  <r_qp_QPlogKhsa>  (55) 
0.58599999999999997

>  <r_qp_QPlogKp>  (55) 
-1.849

>  <r_qp_QPlogPC16>  (55) 
14.343

>  <r_qp_QPlogPo/w>  (55) 
4.6360000000000001

>  <r_qp_QPlogPoct>  (55) 
19.648

>  <r_qp_QPlogPw>  (55) 
11.401

>  <r_qp_QPlogS>  (55) 
-4.766

>  <r_qp_QPpolrz>  (55) 
42.372999999999998

>  <r_qp_SASA>  (55) 
683.87300000000005

>  <r_qp_SAamideO>  (55) 
0

>  <r_qp_SAfluorine>  (55) 
0

>  <r_qp_WPSA>  (55) 
55.195999999999998

>  <r_qp_accptHB>  (55) 
4.7000000000000002

>  <r_qp_dip^2/V>  (55) 
0.0034703999999999998

>  <r_qp_dipole>  (55) 
2.0369999999999999

>  <r_qp_donorHB>  (55) 
2

>  <r_qp_glob>  (55) 
0.79655679999999995

>  <r_qp_mol_MW>  (55) 
378.85700000000003

>  <r_qp_volume>  (55) 
1195.4749999999999

>  <r_sd_BIOSOLVEIT.INFINISEE\_FTREES\_SIMILARITY>  (55) 
0.91400000000000003

>  <r_sd_BIOSOLVEIT.LOGP>  (55) 
3.8675999999999999

>  <r_sd_BIOSOLVEIT.MOLECULAR\_WEIGHT>  (55) 
379.86500000000001

>  <r_sd_BIOSOLVEIT.TPSA>  (55) 
62.869999999999997

>  <i_epik_Tot_Q>  (55) 
1

>  <i_epik_Tot_abs_Q>  (55) 
1

>  <i_f3d_flags>  (55) 
0

>  <i_i_glide_confnum>  (55) 
4

>  <i_i_glide_lignum>  (55) 
405

>  <i_i_glide_posenum>  (55) 
10

>  <i_i_glide_rotatable_bonds>  (55) 
7

>  <i_lp_mmshare_version>  (55) 
65135

>  <i_m_ct_format>  (55) 
2

>  <i_m_source_file_index>  (55) 
1077

>  <i_qp_#NandO>  (55) 
4

>  <i_qp_#acid>  (55) 
0

>  <i_qp_#amide>  (55) 
0

>  <i_qp_#amidine>  (55) 
0

>  <i_qp_#amine>  (55) 
1

>  <i_qp_#in34>  (55) 
0

>  <i_qp_#in56>  (55) 
21

>  <i_qp_#metab>  (55) 
7

>  <i_qp_#nonHatm>  (55) 
27

>  <i_qp_#noncon>  (55) 
0

>  <i_qp_#ringatoms>  (55) 
21

>  <i_qp_#rotor>  (55) 
7

>  <i_qp_#rtvFG>  (55) 
0

>  <i_qp_#stars>  (55) 
1

>  <i_qp_CNS>  (55) 
1

>  <i_qp_HumanOralAbsorption>  (55) 
3

>  <i_qp_RuleOfFive>  (55) 
0

>  <i_qp_RuleOfThree>  (55) 
1

>  <i_sd_BIOSOLVEIT.INFINISEE\_REAGENT1\_NAME>  (55) 
8258832

>  <i_sd_BIOSOLVEIT.INFINISEE\_REAGENT2\_NAME>  (55) 
13192834

>  <i_sd_BIOSOLVEIT.INFINISEE\_RESULT\_RANK>  (55) 
31740

>  <i_sd_version>  (55) 
0

>  <b_lp_Chiralities_Consistent>  (55) 
1

>  <b_sd_chiral_flag>  (55) 
0

>  <acquisition_id>  (55) 
ATP-ACQ-0055

>  <canonical_id>  (55) 
ATP-HTVS-F8BD3C119C5E

>  <compound_code>  (55) 
34435

>  <title>  (55) 
m_269862dba____8258832____13192834

>  <variant>  (55) 
34435-4

>  <selection_arm>  (55) 
exploitation

>  <priority>  (55) 
P1

>  <wave>  (55) 
2

>  <source_file>  (55) 
运行/运行/ATP-VSW/ATP-VSW-DOCK_HTVS_1-003_lib/ATP-VSW-DOCK_HTVS_1-003_lib.mae

>  <canonical_smiles>  (55) 
O[C@H](C[NH2+][C@@H](c1ccccn1)c1cc2ccccc2o1)c1ccccc1Cl

$$$$
ATP-ACQ-0056
     RDKit          3D

 61 64  0  0  0  0  0  0  0  0999 V2000
  196.9381  181.7946  157.9177 O   0  0  0  0  0  0  0  0  0  0  0  0
  197.1367  182.5686  156.9814 C   0  0  0  0  0  0  0  0  0  0  0  0
  197.0967  183.8926  157.1578 N   0  0  0  0  0  0  0  0  0  0  0  0
  196.4019  184.5880  158.1794 C   0  0  0  0  0  0  0  0  0  0  0  0
  195.4558  183.9790  158.9395 N   0  0  0  0  0  0  0  0  0  0  0  0
  194.8117  184.7187  159.8578 C   0  0  0  0  0  0  0  0  0  0  0  0
  195.1126  186.0741  160.0520 C   0  0  0  0  0  0  0  0  0  0  0  0
  196.0342  186.7114  159.2956 N   0  0  0  0  0  0  0  0  0  0  0  0
  196.6695  185.9747  158.3451 C   0  0  0  0  0  0  0  0  0  0  0  0
  197.6513  186.7091  157.5202 C   0  0  0  0  0  0  0  0  0  0  0  0
  197.5912  186.6872  156.1051 C   0  0  0  0  0  0  0  0  0  0  0  0
  198.5486  187.3721  155.3342 C   0  0  0  0  0  0  0  0  0  0  0  0
  199.5649  188.1083  155.9648 C   0  0  0  0  0  0  0  0  0  0  0  0
  199.6340  188.1425  157.3696 C   0  0  0  0  0  0  0  0  0  0  0  0
  198.6838  187.4430  158.1383 C   0  0  0  0  0  0  0  0  0  0  0  0
  194.3875  186.8101  161.0630 C   0  0  0  0  0  0  0  0  0  0  0  0
  193.7777  187.4474  161.9090 C   0  0  0  0  0  0  0  0  0  0  0  0
  193.1284  188.2811  162.9014 C   0  0  0  0  0  0  0  0  0  0  0  0
  193.3896  189.6812  163.0671 C   0  0  0  0  0  0  0  0  0  0  0  0
  194.3213  190.4318  162.3177 N   0  0  0  0  0  0  0  0  0  0  0  0
  195.5402  189.9866  161.7377 N   0  0  0  0  0  0  0  0  0  0  0  0
  192.6821  190.3787  164.0683 C   0  0  0  0  0  0  0  0  0  0  0  0
  191.7543  189.7240  164.9005 C   0  0  0  0  0  0  0  0  0  0  0  0
  191.5069  188.3497  164.7330 C   0  0  0  0  0  0  0  0  0  0  0  0
  192.1895  187.6373  163.7316 C   0  0  0  0  0  0  0  0  0  0  0  0
  197.6243  182.1297  155.6173 C   0  0  0  0  0  0  0  0  0  0  0  0
  198.5070  181.0301  155.3824 C   0  0  0  0  0  0  0  0  0  0  0  0
  198.8475  180.6971  154.0424 C   0  0  0  0  0  0  0  0  0  0  0  0
  198.3495  181.4303  152.9519 C   0  0  0  0  0  0  0  0  0  0  0  0
  197.4816  182.5050  153.1811 C   0  0  0  0  0  0  0  0  0  0  0  0
  197.1226  182.8413  154.4954 C   0  0  0  0  0  0  0  0  0  0  0  0
  199.2232  180.2645  156.5055 C   0  0  1  0  0  0  0  0  0  0  0  0
  200.5321  180.8190  156.8906 N   0  0  0  0  0  0  0  0  0  0  0  0
  201.5327  180.7157  155.8406 C   0  0  2  0  0  0  0  0  0  0  0  0
  200.4473  182.1944  157.3643 C   0  0  2  0  0  0  0  0  0  0  0  0
  197.4884  184.4695  156.4207 H   0  0  0  0  0  0  0  0  0  0  0  0
  194.0460  184.2299  160.4432 H   0  0  0  0  0  0  0  0  0  0  0  0
  196.8078  186.1471  155.5911 H   0  0  0  0  0  0  0  0  0  0  0  0
  198.4846  187.3452  154.2554 H   0  0  0  0  0  0  0  0  0  0  0  0
  200.2879  188.6506  155.3740 H   0  0  0  0  0  0  0  0  0  0  0  0
  200.4109  188.7062  157.8630 H   0  0  0  0  0  0  0  0  0  0  0  0
  198.7449  187.4697  159.2179 H   0  0  0  0  0  0  0  0  0  0  0  0
  194.0949  191.3998  162.1763 H   0  0  0  0  0  0  0  0  0  0  0  0
  195.9979  190.7037  161.1863 H   0  0  0  0  0  0  0  0  0  0  0  0
  196.1687  189.6119  162.4435 H   0  0  0  0  0  0  0  0  0  0  0  0
  192.8666  191.4351  164.2263 H   0  0  0  0  0  0  0  0  0  0  0  0
  191.2280  190.2720  165.6722 H   0  0  0  0  0  0  0  0  0  0  0  0
  190.7890  187.8447  165.3646 H   0  0  0  0  0  0  0  0  0  0  0  0
  191.9825  186.5818  163.6170 H   0  0  0  0  0  0  0  0  0  0  0  0
  199.5406  179.8999  153.8506 H   0  0  0  0  0  0  0  0  0  0  0  0
  198.6386  181.1703  151.9403 H   0  0  0  0  0  0  0  0  0  0  0  0
  197.0794  183.0730  152.3550 H   0  0  0  0  0  0  0  0  0  0  0  0
  196.4388  183.6687  154.6263 H   0  0  0  0  0  0  0  0  0  0  0  0
  198.6174  180.0882  157.3866 H   0  0  0  0  0  0  0  0  0  0  0  0
  199.3768  179.2505  156.1387 H   0  0  0  0  0  0  0  0  0  0  0  0
  202.4993  181.0762  156.1829 H   0  0  0  0  0  0  0  0  0  0  0  0
  201.2587  181.3153  154.9744 H   0  0  0  0  0  0  0  0  0  0  0  0
  201.6472  179.6790  155.5247 H   0  0  0  0  0  0  0  0  0  0  0  0
  201.4088  182.5686  157.7134 H   0  0  0  0  0  0  0  0  0  0  0  0
  199.7394  182.2701  158.1873 H   0  0  0  0  0  0  0  0  0  0  0  0
  200.1172  182.8590  156.5663 H   0  0  0  0  0  0  0  0  0  0  0  0
  1  2  2  0
  2  3  1  0
  2 26  1  0
  3  4  1  0
  3 36  1  0
  4  5  1  0
  4  9  2  0
  5  6  2  0
  6  7  1  0
  6 37  1  0
  7  8  2  0
  7 16  1  0
  8  9  1  0
  9 10  1  0
 10 11  2  0
 10 15  1  0
 11 12  1  0
 11 38  1  0
 12 13  2  0
 12 39  1  0
 13 14  1  0
 13 40  1  0
 14 15  2  0
 14 41  1  0
 15 42  1  0
 16 17  3  0
 17 18  1  0
 18 19  1  0
 18 25  2  0
 19 20  1  0
 19 22  2  0
 20 21  1  0
 20 43  1  0
 21 44  1  0
 21 45  1  0
 22 23  1  0
 22 46  1  0
 23 24  2  0
 23 47  1  0
 24 25  1  0
 24 48  1  0
 25 49  1  0
 26 27  1  0
 26 31  2  0
 27 28  2  0
 27 32  1  0
 28 29  1  0
 28 50  1  0
 29 30  2  0
 29 51  1  0
 30 31  1  0
 30 52  1  0
 31 53  1  0
 32 33  1  0
 32 54  1  1
 32 55  1  0
 33 34  1  0
 33 35  1  0
 34 56  1  1
 34 57  1  0
 34 58  1  0
 35 59  1  1
 35 60  1  0
 35 61  1  0
M  END
>  <s_epik_cmdline>  (56) 
J2VwaWtfcHl0aG9uJywgJy1waCcsICc3LjAwMDAwMCcsICctcGh0JywgJzIuMDAwMDAwJywgJy1tcycsICcxNicsICctdG4nLCAnOCcsICctbWEnLCAnMjAwJywgJy1pbWFlJywgJzxpbmZpbGUubWFlPicsICctb21hZScsICc8b3V0ZmlsZS5tYWU+Jw==

>  <s_epik_input>  (56) 
W2NIXTFbY0hdW2NIXVtjSF1jKFtDSDJdTihbQ0gzXSlbQ0gzXSljMUMoPU8pW05IXWMybltjSF1jKG5jMi1jM1tjSF1bY0hdW2NIXVtjSF1bY0hdMylDI0NjNGMoW05IXVtOSDJdKVtjSF1bY0hdW2NIXVtjSF00

>  <s_i_glide_gridfile>  (56) 
ATP-Grid

>  <s_lp_Force_Field>  (56) 
OPLS_2005

>  <s_lp_Variant>  (56) 
rxn505a____EMOL5415347____EMOL313123100____EMOL49780033-2

>  <s_lp_label>  (56) 
2964_sdstereoexpander_1_neutralizer_1_epik_2_stereoizer_1

>  <s_m_source_file>  (56) 
ATP-VSW-LIGPREP-002-in.maegz

>  <s_sd_BIOSOLVEIT.INFINISEE\_QUERY\_NAME>  (56) 
Ref-Lig

>  <s_sd_BIOSOLVEIT.INFINISEE\_QUERY\_SMILES>  (56) 
S(c1nc2c(cc1C[NH2+]Cc3ccc(cc3)C[NH+](C)C)cccc2)Cc4ccccc4

>  <s_sd_BIOSOLVEIT.INFINISEE\_REACTION\_NAME>  (56) 
rxn505a

>  <s_sd_BIOSOLVEIT.INFINISEE\_REAGENT1\_NAME>  (56) 
EMOL5415347

>  <s_sd_BIOSOLVEIT.INFINISEE\_REAGENT1\_SMILES>  (56) 
O=C(O)c1c(cccc1)CN(C)C

>  <s_sd_BIOSOLVEIT.INFINISEE\_REAGENT2\_NAME>  (56) 
EMOL313123100

>  <s_sd_BIOSOLVEIT.INFINISEE\_REAGENT2\_SMILES>  (56) 
n1c(C#C)cnc(N)c1c2ccccc2

>  <s_sd_BIOSOLVEIT.INFINISEE\_REAGENT3\_NAME>  (56) 
EMOL49780033

>  <s_sd_BIOSOLVEIT.INFINISEE\_REAGENT3\_SMILES>  (56) 
Ic1c(NN)cccc1

>  <s_sd_BIOSOLVEIT.INFINISEE\_SPACE>  (56) 
eXplore_7tr_2022-12

>  <s_vsw_compound_code>  (56) 
94818

>  <s_vsw_variant>  (56) 
94818-2

>  <r_epik_Charging_Adjusted_Penalty>  (56) 
1.38031721167688

>  <r_epik_Ionization_Penalty>  (56) 
1.3841000000000001

>  <r_epik_Ionization_Penalty_Charging>  (56) 
0

>  <r_epik_Ionization_Penalty_Neutral>  (56) 
1.3841000000000001

>  <r_epik_State_Penalty>  (56) 
1.3803000000000001

>  <r_i_docking_score>  (56) 
-2.4787734987822301

>  <r_i_glide_ecoul>  (56) 
1.5038141012191799

>  <r_i_glide_eff_state_penalty>  (56) 
1.3803000000000001

>  <r_i_glide_einternal>  (56) 
9.9377822875976598

>  <r_i_glide_emodel>  (56) 
-45.3261663544708

>  <r_i_glide_energy>  (56) 
-41.030064225196803

>  <r_i_glide_erotb>  (56) 
0.65910069520707004

>  <r_i_glide_esite>  (56) 
-0.098904803667306404

>  <r_i_glide_evdw>  (56) 
-42.533878326416001

>  <r_i_glide_gscore>  (56) 
-3.8590734987822302

>  <r_i_glide_hbond>  (56) 
-0.16668021002526101

>  <r_i_glide_ligand_efficiency>  (56) 
-0.070822099965206498

>  <r_i_glide_ligand_efficiency_ln>  (56) 
-0.54414579639645999

>  <r_i_glide_ligand_efficiency_sa>  (56) 
-0.231663784938447

>  <r_i_glide_lipo>  (56) 
-2.09609674279517

>  <r_i_glide_metal>  (56) 
-0

>  <r_i_glide_rewards>  (56) 
-0.255370636363635

>  <r_lp_Energy>  (56) 
45.299292999999999

>  <r_qp_ACxDN^.5/SA>  (56) 
0.0186851

>  <r_qp_CIQPlogS>  (56) 
-4.5519999999999996

>  <r_qp_EA(eV)>  (56) 
1.0149999999999999

>  <r_qp_FISA>  (56) 
134.113

>  <r_qp_FOSA>  (56) 
162.893

>  <r_qp_IP(eV)>  (56) 
7.9649999999999999

>  <r_qp_Jm>  (56) 
5.8976464390075703e-05

>  <r_qp_PISA>  (56) 
559.29200000000003

>  <r_qp_PSA>  (56) 
98.585999999999999

>  <r_qp_PercentHumanOralAbsorption>  (56) 
75.406000000000006

>  <r_qp_QPPCaco>  (56) 
32.954000000000001

>  <r_qp_QPPMDCK>  (56) 
15.141

>  <r_qp_QPlogBB>  (56) 
-0.78200000000000003

>  <r_qp_QPlogHERG>  (56) 
-9.7360000000000007

>  <r_qp_QPlogKhsa>  (56) 
0.58799999999999997

>  <r_qp_QPlogKp>  (56) 
-5.282

>  <r_qp_QPlogPC16>  (56) 
18.545000000000002

>  <r_qp_QPlogPo/w>  (56) 
3.637

>  <r_qp_QPlogPoct>  (56) 
28.908000000000001

>  <r_qp_QPlogPw>  (56) 
18.25

>  <r_qp_QPlogS>  (56) 
-4.6120000000000001

>  <r_qp_QPpolrz>  (56) 
54.356000000000002

>  <r_qp_SASA>  (56) 
856.29700000000003

>  <r_qp_SAamideO>  (56) 
0

>  <r_qp_SAfluorine>  (56) 
0

>  <r_qp_WPSA>  (56) 
0

>  <r_qp_accptHB>  (56) 
8

>  <r_qp_dip^2/V>  (56) 
0.032743599999999998

>  <r_qp_dipole>  (56) 
7.0620000000000003

>  <r_qp_donorHB>  (56) 
4

>  <r_qp_glob>  (56) 
0.74758159999999996

>  <r_qp_mol_MW>  (56) 
462.553

>  <r_qp_volume>  (56) 
1522.9200000000001

>  <r_sd_BIOSOLVEIT.INFINISEE\_FTREES\_SIMILARITY>  (56) 
0.90300000000000002

>  <r_sd_BIOSOLVEIT.LOGP>  (56) 
2.7258

>  <r_sd_BIOSOLVEIT.MOLECULAR\_WEIGHT>  (56) 
463.56200000000001

>  <r_sd_BIOSOLVEIT.TPSA>  (56) 
97.370000000000005

>  <i_epik_Tot_Q>  (56) 
0

>  <i_epik_Tot_abs_Q>  (56) 
0

>  <i_f3d_flags>  (56) 
0

>  <i_i_glide_confnum>  (56) 
10

>  <i_i_glide_lignum>  (56) 
20

>  <i_i_glide_posenum>  (56) 
11

>  <i_i_glide_rotatable_bonds>  (56) 
9

>  <i_lp_mmshare_version>  (56) 
65135

>  <i_m_ct_format>  (56) 
2

>  <i_m_source_file_index>  (56) 
2964

>  <i_qp_#NandO>  (56) 
7

>  <i_qp_#acid>  (56) 
0

>  <i_qp_#amide>  (56) 
0

>  <i_qp_#amidine>  (56) 
0

>  <i_qp_#amine>  (56) 
2

>  <i_qp_#in34>  (56) 
0

>  <i_qp_#in56>  (56) 
24

>  <i_qp_#metab>  (56) 
5

>  <i_qp_#nonHatm>  (56) 
35

>  <i_qp_#noncon>  (56) 
0

>  <i_qp_#ringatoms>  (56) 
24

>  <i_qp_#rotor>  (56) 
9

>  <i_qp_#rtvFG>  (56) 
1

>  <i_qp_#stars>  (56) 
3

>  <i_qp_CNS>  (56) 
-1

>  <i_qp_HumanOralAbsorption>  (56) 
2

>  <i_qp_RuleOfFive>  (56) 
0

>  <i_qp_RuleOfThree>  (56) 
0

>  <i_sd_BIOSOLVEIT.INFINISEE\_RESULT\_RANK>  (56) 
81888

>  <i_sd_version>  (56) 
0

>  <b_lp_Chiralities_Consistent>  (56) 
1

>  <b_sd_chiral_flag>  (56) 
0

>  <acquisition_id>  (56) 
ATP-ACQ-0056

>  <canonical_id>  (56) 
ATP-HTVS-CEC01CDE00B1

>  <compound_code>  (56) 
94818

>  <title>  (56) 
rxn505a____EMOL5415347____EMOL313123100____EMOL49780033

>  <variant>  (56) 
94818-2

>  <selection_arm>  (56) 
descriptor_diversity

>  <priority>  (56) 
P1

>  <wave>  (56) 
2

>  <source_file>  (56) 
运行/运行/ATP-VSW/ATP-VSW-DOCK_HTVS_1-003_lib/ATP-VSW-DOCK_HTVS_1-003_lib.mae

>  <canonical_smiles>  (56) 
CN(C)Cc1ccccc1C(=O)Nc1ncc(C#Cc2ccccc2NN)nc1-c1ccccc1

$$$$
ATP-ACQ-0057
     RDKit          3D

 46 49  0  0  0  0  0  0  0  0999 V2000
  194.9164  187.1083  161.2553 O   0  0  0  0  0  0  0  0  0  0  0  0
  195.3674  186.4587  160.3165 C   0  0  0  0  0  0  0  0  0  0  0  0
  195.2441  185.1255  160.2837 N   0  0  0  0  0  0  0  0  0  0  0  0
  195.7900  184.2527  159.3098 C   0  0  0  0  0  0  0  0  0  0  0  0
  197.0881  184.4532  158.7588 C   0  0  0  0  0  0  0  0  0  0  0  0
  197.5695  183.5197  157.7966 C   0  0  0  0  0  0  0  0  0  0  0  0
  196.7850  182.4226  157.4064 C   0  0  0  0  0  0  0  0  0  0  0  0
  195.5113  182.2298  157.9686 C   0  0  0  0  0  0  0  0  0  0  0  0
  195.0232  183.1336  158.9245 C   0  0  0  0  0  0  0  0  0  0  0  0
  197.9709  185.6077  159.2636 C   0  0  2  0  0  0  0  0  0  0  0  0
  197.4785  186.9535  158.9052 N   0  0  0  0  0  0  0  0  0  0  0  0
  198.2519  187.9947  159.6028 C   0  0  1  0  0  0  0  0  0  0  0  0
  198.2104  189.3331  158.8979 C   0  0  0  0  0  0  0  0  0  0  0  0
  198.8670  189.5034  157.6578 C   0  0  0  0  0  0  0  0  0  0  0  0
  198.8663  190.7628  157.0261 C   0  0  0  0  0  0  0  0  0  0  0  0
  199.5549  190.9441  155.7564 C   0  0  0  0  0  0  0  0  0  0  0  0
  200.0998  191.0888  154.7473 N   0  0  0  0  0  0  0  0  0  0  0  0
  198.1997  191.8476  157.6302 C   0  0  0  0  0  0  0  0  0  0  0  0
  197.5448  191.6741  158.8658 C   0  0  0  0  0  0  0  0  0  0  0  0
  197.5435  190.4166  159.4955 C   0  0  0  0  0  0  0  0  0  0  0  0
  196.0222  187.1663  159.1139 C   0  0  1  0  0  0  0  0  0  0  0  0
  199.4179  185.4203  158.7954 C   0  0  0  0  0  0  0  0  0  0  0  0
  199.8055  185.9201  157.5317 C   0  0  0  0  0  0  0  0  0  0  0  0
  201.1203  185.7567  157.0676 C   0  0  0  0  0  0  0  0  0  0  0  0
  202.0612  185.0597  157.8493 C   0  0  0  0  0  0  0  0  0  0  0  0
  201.6771  184.5349  159.0960 C   0  0  0  0  0  0  0  0  0  0  0  0
  200.3591  184.7079  159.5710 C   0  0  0  0  0  0  0  0  0  0  0  0
  194.6509  184.7091  160.9807 H   0  0  0  0  0  0  0  0  0  0  0  0
  198.5474  183.6019  157.3360 H   0  0  0  0  0  0  0  0  0  0  0  0
  197.1587  181.7227  156.6742 H   0  0  0  0  0  0  0  0  0  0  0  0
  194.9160  181.3843  157.6602 H   0  0  0  0  0  0  0  0  0  0  0  0
  194.0386  182.9729  159.3400 H   0  0  0  0  0  0  0  0  0  0  0  0
  197.9691  185.5373  160.3554 H   0  0  0  0  0  0  0  0  0  0  0  0
  197.9036  188.0947  160.6354 H   0  0  0  0  0  0  0  0  0  0  0  0
  199.3164  187.7673  159.6697 H   0  0  0  0  0  0  0  0  0  0  0  0
  199.3924  188.6758  157.2014 H   0  0  0  0  0  0  0  0  0  0  0  0
  198.1878  192.8163  157.1538 H   0  0  0  0  0  0  0  0  0  0  0  0
  197.0407  192.5058  159.3295 H   0  0  0  0  0  0  0  0  0  0  0  0
  197.0551  190.2803  160.4497 H   0  0  0  0  0  0  0  0  0  0  0  0
  195.5042  186.8205  158.2144 H   0  0  0  0  0  0  0  0  0  0  0  0
  195.7871  188.2301  159.1557 H   0  0  0  0  0  0  0  0  0  0  0  0
  199.0868  186.4352  156.9108 H   0  0  0  0  0  0  0  0  0  0  0  0
  201.3917  186.1517  156.1010 H   0  0  0  0  0  0  0  0  0  0  0  0
  203.0629  184.9176  157.4771 H   0  0  0  0  0  0  0  0  0  0  0  0
  202.3893  183.9814  159.6866 H   0  0  0  0  0  0  0  0  0  0  0  0
  200.0773  184.2862  160.5286 H   0  0  0  0  0  0  0  0  0  0  0  0
  1  2  2  0
  2  3  1  0
  2 21  1  0
  3  4  1  0
  3 28  1  0
  4  5  1  0
  4  9  2  0
  5  6  2  0
  5 10  1  0
  6  7  1  0
  6 29  1  0
  7  8  2  0
  7 30  1  0
  8  9  1  0
  8 31  1  0
  9 32  1  0
 10 11  1  0
 10 22  1  0
 10 33  1  1
 11 12  1  0
 11 21  1  0
 12 13  1  0
 12 34  1  1
 12 35  1  0
 13 14  1  0
 13 20  2  0
 14 15  2  0
 14 36  1  0
 15 16  1  0
 15 18  1  0
 16 17  3  0
 18 19  2  0
 18 37  1  0
 19 20  1  0
 19 38  1  0
 20 39  1  0
 21 40  1  6
 21 41  1  0
 22 23  2  0
 22 27  1  0
 23 24  1  0
 23 42  1  0
 24 25  2  0
 24 43  1  0
 25 26  1  0
 25 44  1  0
 26 27  2  0
 26 45  1  0
 27 46  1  0
M  END
>  <s_epik_cmdline>  (57) 
J2VwaWtfcHl0aG9uJywgJy1waCcsICc3LjAwMDAwMCcsICctcGh0JywgJzIuMDAwMDAwJywgJy1tcycsICcxNicsICctdG4nLCAnOCcsICctbWEnLCAnMjAwJywgJy1pbWFlJywgJzxpbmZpbGUubWFlPicsICctb21hZScsICc8b3V0ZmlsZS5tYWU+Jw==

>  <s_epik_input>  (57) 
W2NIXTFbY0hdW2NIXVtjSF1bY0hdYzFbQ0BIXShjKGMyMylbY0hdW2NIXVtjSF1bY0hdMylOKFtDSDJdQyg9TylbTkhdMilbQ0gyXWM0W2NIXWMoQyNOKVtjSF1bY0hdW2NIXTQ=

>  <s_i_glide_gridfile>  (57) 
ATP-Grid

>  <s_lp_Force_Field>  (57) 
OPLS_2005

>  <s_lp_Variant>  (57) 
m_2230bdc____17849930____666704-1

>  <s_lp_label>  (57) 
2068_sdstereoexpander_1_neutralizer_1_epik_1_stereoizer_1

>  <s_m_source_file>  (57) 
ATP-VSW-LIGPREP-001-in.maegz

>  <s_sd_BIOSOLVEIT.INFINISEE\_QUERY\_NAME>  (57) 
Ref-Lig

>  <s_sd_BIOSOLVEIT.INFINISEE\_QUERY\_SMILES>  (57) 
S(c1nc2c(cc1C[NH2+]Cc3ccc(cc3)C[NH+](C)C)cccc2)Cc4ccccc4

>  <s_sd_BIOSOLVEIT.INFINISEE\_REACTION\_NAME>  (57) 
m_2230bdc

>  <s_sd_BIOSOLVEIT.INFINISEE\_REAGENT1\_SMILES>  (57) 
[R1*]N1C(c2c(NC(=O)C1)cccc2)c3ccccc3

>  <s_sd_BIOSOLVEIT.INFINISEE\_REAGENT2\_SMILES>  (57) 
[R1*]Cc1cc(C#N)ccc1

>  <s_sd_BIOSOLVEIT.INFINISEE\_SPACE>  (57) 
REALSpace_44bn_2023-08

>  <s_vsw_compound_code>  (57) 
66145

>  <s_vsw_variant>  (57) 
66145-1

>  <r_epik_Charging_Adjusted_Penalty>  (57) 
0.0087634984339075902

>  <r_epik_Ionization_Penalty>  (57) 
0.0088000000000000005

>  <r_epik_Ionization_Penalty_Charging>  (57) 
0

>  <r_epik_Ionization_Penalty_Neutral>  (57) 
0.0088000000000000005

>  <r_epik_State_Penalty>  (57) 
0.0088000000000000005

>  <r_i_docking_score>  (57) 
-1.6624754275114799

>  <r_i_glide_ecoul>  (57) 
-0.21493129432201399

>  <r_i_glide_eff_state_penalty>  (57) 
0.0088000000000000005

>  <r_i_glide_einternal>  (57) 
0.88896167278289795

>  <r_i_glide_emodel>  (57) 
-34.339480933086698

>  <r_i_glide_energy>  (57) 
-31.5075242966413

>  <r_i_glide_erotb>  (57) 
0.45867311489565199

>  <r_i_glide_esite>  (57) 
0

>  <r_i_glide_evdw>  (57) 
-31.2925930023193

>  <r_i_glide_gscore>  (57) 
-1.6712754275114801

>  <r_i_glide_hbond>  (57) 
0

>  <r_i_glide_ligand_efficiency>  (57) 
-0.061573163981906799

>  <r_i_glide_ligand_efficiency_ln>  (57) 
-0.38699687147519501

>  <r_i_glide_ligand_efficiency_sa>  (57) 
-0.18471949174278501

>  <r_i_glide_lipo>  (57) 
-1.06538878032073

>  <r_i_glide_metal>  (57) 
-0

>  <r_i_glide_rewards>  (57) 
0.53230958217786195

>  <r_lp_Energy>  (57) 
38.176011000000003

>  <r_qp_ACxDN^.5/SA>  (57) 
0.0093585000000000005

>  <r_qp_CIQPlogS>  (57) 
-4.907

>  <r_qp_EA(eV)>  (57) 
0.48799999999999999

>  <r_qp_FISA>  (57) 
124.836

>  <r_qp_FOSA>  (57) 
47.765000000000001

>  <r_qp_IP(eV)>  (57) 
9.0820000000000007

>  <r_qp_Jm>  (57) 
0.00035726845182900498

>  <r_qp_PISA>  (57) 
468.52999999999997

>  <r_qp_PSA>  (57) 
66.977999999999994

>  <r_qp_PercentHumanOralAbsorption>  (57) 
84.992999999999995

>  <r_qp_QPPCaco>  (57) 
161.80099999999999

>  <r_qp_QPPMDCK>  (57) 
76.424000000000007

>  <r_qp_QPlogBB>  (57) 
-0.42999999999999999

>  <r_qp_QPlogHERG>  (57) 
-7.2610000000000001

>  <r_qp_QPlogKhsa>  (57) 
0.45100000000000001

>  <r_qp_QPlogKp>  (57) 
-3.944

>  <r_qp_QPlogPC16>  (57) 
13.324999999999999

>  <r_qp_QPlogPo/w>  (57) 
3.1619999999999999

>  <r_qp_QPlogPoct>  (57) 
20.198

>  <r_qp_QPlogPw>  (57) 
12.010999999999999

>  <r_qp_QPlogS>  (57) 
-5.0510000000000002

>  <r_qp_QPpolrz>  (57) 
42.496000000000002

>  <r_qp_SASA>  (57) 
641.13

>  <r_qp_SAamideO>  (57) 
0

>  <r_qp_SAfluorine>  (57) 
0

>  <r_qp_WPSA>  (57) 
0

>  <r_qp_accptHB>  (57) 
6

>  <r_qp_dip^2/V>  (57) 
0.077110700000000004

>  <r_qp_dipole>  (57) 
9.4250000000000007

>  <r_qp_donorHB>  (57) 
1

>  <r_qp_glob>  (57) 
0.82892460000000001

>  <r_qp_mol_MW>  (57) 
353.423

>  <r_qp_volume>  (57) 
1151.979

>  <r_sd_BIOSOLVEIT.INFINISEE\_FTREES\_SIMILARITY>  (57) 
0.90100000000000002

>  <r_sd_BIOSOLVEIT.LOGP>  (57) 
2.6848800000000002

>  <r_sd_BIOSOLVEIT.MOLECULAR\_WEIGHT>  (57) 
354.43099999999998

>  <r_sd_BIOSOLVEIT.TPSA>  (57) 
57.329999999999998

>  <i_epik_Tot_Q>  (57) 
0

>  <i_epik_Tot_abs_Q>  (57) 
0

>  <i_f3d_flags>  (57) 
0

>  <i_i_glide_confnum>  (57) 
2

>  <i_i_glide_lignum>  (57) 
635

>  <i_i_glide_posenum>  (57) 
7

>  <i_i_glide_rotatable_bonds>  (57) 
3

>  <i_lp_mmshare_version>  (57) 
65135

>  <i_m_ct_format>  (57) 
2

>  <i_m_source_file_index>  (57) 
2068

>  <i_qp_#NandO>  (57) 
4

>  <i_qp_#acid>  (57) 
0

>  <i_qp_#amide>  (57) 
0

>  <i_qp_#amidine>  (57) 
0

>  <i_qp_#amine>  (57) 
1

>  <i_qp_#in34>  (57) 
0

>  <i_qp_#in56>  (57) 
18

>  <i_qp_#metab>  (57) 
7

>  <i_qp_#nonHatm>  (57) 
27

>  <i_qp_#noncon>  (57) 
2

>  <i_qp_#ringatoms>  (57) 
23

>  <i_qp_#rotor>  (57) 
3

>  <i_qp_#rtvFG>  (57) 
0

>  <i_qp_#stars>  (57) 
1

>  <i_qp_CNS>  (57) 
1

>  <i_qp_HumanOralAbsorption>  (57) 
2

>  <i_qp_RuleOfFive>  (57) 
0

>  <i_qp_RuleOfThree>  (57) 
1

>  <i_sd_BIOSOLVEIT.INFINISEE\_REAGENT1\_NAME>  (57) 
17849930

>  <i_sd_BIOSOLVEIT.INFINISEE\_REAGENT2\_NAME>  (57) 
666704

>  <i_sd_BIOSOLVEIT.INFINISEE\_RESULT\_RANK>  (57) 
95180

>  <i_sd_version>  (57) 
0

>  <b_lp_Chiralities_Consistent>  (57) 
1

>  <b_sd_chiral_flag>  (57) 
0

>  <acquisition_id>  (57) 
ATP-ACQ-0057

>  <canonical_id>  (57) 
ATP-HTVS-8EE5F01B86B2

>  <compound_code>  (57) 
66145

>  <title>  (57) 
m_2230bdc____17849930____666704

>  <variant>  (57) 
66145-1

>  <selection_arm>  (57) 
score_calibration

>  <priority>  (57) 
P1

>  <wave>  (57) 
2

>  <source_file>  (57) 
运行/运行/ATP-VSW/ATP-VSW-DOCK_HTVS_1-001_lib/ATP-VSW-DOCK_HTVS_1-001_lib

>  <canonical_smiles>  (57) 
N#Cc1cccc(CN2CC(=O)Nc3ccccc3[C@H]2c2ccccc2)c1

$$$$
ATP-ACQ-0058
     RDKit          3D

 54 57  0  0  0  0  0  0  0  0999 V2000
  204.8174  180.4252  160.7350 F   0  0  0  0  0  0  0  0  0  0  0  0
  203.7612  181.0353  160.1488 C   0  0  0  0  0  0  0  0  0  0  0  0
  203.3596  180.6564  158.8546 C   0  0  0  0  0  0  0  0  0  0  0  0
  202.2597  181.2920  158.2478 C   0  0  0  0  0  0  0  0  0  0  0  0
  201.8418  180.8881  156.9187 C   0  0  0  0  0  0  0  0  0  0  0  0
  201.4594  180.5716  155.8069 C   0  0  0  0  0  0  0  0  0  0  0  0
  200.9300  180.2917  154.4958 C   0  0  0  0  0  0  0  0  0  0  0  0
  201.4181  180.8027  153.4891 O   0  0  0  0  0  0  0  0  0  0  0  0
  199.8873  179.4461  154.5025 N   0  0  0  0  0  0  0  0  0  0  0  0
  198.9498  179.3062  153.4413 C   0  0  0  0  0  0  0  0  0  0  0  0
  197.6212  179.7817  153.5950 C   0  0  0  0  0  0  0  0  0  0  0  0
  197.1719  180.4532  154.8051 C   0  0  0  0  0  0  0  0  0  0  0  0
  196.8472  181.0604  155.8200 C   0  0  0  0  0  0  0  0  0  0  0  0
  196.4887  181.7987  157.0387 C   0  0  2  0  0  0  0  0  0  0  0  0
  195.0990  181.4533  157.2979 N   0  0  2  0  0  0  0  0  0  0  0  0
  196.6408  183.3204  156.9296 C   0  0  1  0  0  0  0  0  0  0  0  0
  196.0819  184.1017  158.1274 C   0  0  0  0  0  0  0  0  0  0  0  0
  196.8976  185.0713  158.7570 C   0  0  0  0  0  0  0  0  0  0  0  0
  196.4077  185.7999  159.8690 C   0  0  0  0  0  0  0  0  0  0  0  0
  197.1615  186.7680  160.4401 F   0  0  0  0  0  0  0  0  0  0  0  0
  195.1233  185.5291  160.3871 C   0  0  0  0  0  0  0  0  0  0  0  0
  194.3178  184.5560  159.7611 C   0  0  0  0  0  0  0  0  0  0  0  0
  194.7768  183.8744  158.6314 C   0  0  0  0  0  0  0  0  0  0  0  0
  196.7294  179.6224  152.5157 C   0  0  0  0  0  0  0  0  0  0  0  0
  197.0707  179.0536  151.3444 N   0  0  0  0  0  0  0  0  0  0  0  0
  198.3347  178.6081  151.1783 C   0  0  0  0  0  0  0  0  0  0  0  0
  199.3146  178.7092  152.2064 C   0  0  0  0  0  0  0  0  0  0  0  0
  200.6201  178.2120  151.9785 C   0  0  0  0  0  0  0  0  0  0  0  0
  200.9680  177.6449  150.7421 C   0  0  0  0  0  0  0  0  0  0  0  0
  200.0067  177.5507  149.7223 C   0  0  0  0  0  0  0  0  0  0  0  0
  198.6990  178.0221  149.9470 C   0  0  0  0  0  0  0  0  0  0  0  0
  201.5597  182.3064  158.9344 C   0  0  0  0  0  0  0  0  0  0  0  0
  201.9626  182.6821  160.2313 C   0  0  0  0  0  0  0  0  0  0  0  0
  203.0635  182.0466  160.8369 C   0  0  0  0  0  0  0  0  0  0  0  0
  195.0817  180.4349  157.3471 H   0  0  0  0  0  0  0  0  0  0  0  0
  194.4890  181.7886  156.5418 H   0  0  0  0  0  0  0  0  0  0  0  0
  203.8964  179.8762  158.3327 H   0  0  0  0  0  0  0  0  0  0  0  0
  199.6306  179.0328  155.3841 H   0  0  0  0  0  0  0  0  0  0  0  0
  197.0924  181.3987  157.8500 H   0  0  0  0  0  0  0  0  0  0  0  0
  197.6990  183.5536  156.7937 H   0  0  0  0  0  0  0  0  0  0  0  0
  196.1404  183.6828  156.0398 H   0  0  0  0  0  0  0  0  0  0  0  0
  197.8886  185.3077  158.3718 H   0  0  0  0  0  0  0  0  0  0  0  0
  194.7332  186.0721  161.2443 H   0  0  0  0  0  0  0  0  0  0  0  0
  193.3226  184.3378  160.1301 H   0  0  0  0  0  0  0  0  0  0  0  0
  194.0575  183.2191  158.1666 H   0  0  0  0  0  0  0  0  0  0  0  0
  195.7099  179.9721  152.5860 H   0  0  0  0  0  0  0  0  0  0  0  0
  201.3844  178.2673  152.7388 H   0  0  0  0  0  0  0  0  0  0  0  0
  201.9789  177.2966  150.5783 H   0  0  0  0  0  0  0  0  0  0  0  0
  200.2744  177.1159  148.7701 H   0  0  0  0  0  0  0  0  0  0  0  0
  197.9654  177.9437  149.1566 H   0  0  0  0  0  0  0  0  0  0  0  0
  200.7134  182.7971  158.4748 H   0  0  0  0  0  0  0  0  0  0  0  0
  201.4288  183.4565  160.7625 H   0  0  0  0  0  0  0  0  0  0  0  0
  203.3735  182.3318  161.8310 H   0  0  0  0  0  0  0  0  0  0  0  0
  194.8054  181.8572  158.1838 H   0  0  0  0  0  0  0  0  0  0  0  0
  1  2  1  0
  2  3  2  0
  2 34  1  0
  3  4  1  0
  3 37  1  0
  4  5  1  0
  4 32  2  0
  5  6  3  0
  6  7  1  0
  7  8  2  0
  7  9  1  0
  9 10  1  0
  9 38  1  0
 10 11  2  0
 10 27  1  0
 11 12  1  0
 11 24  1  0
 12 13  3  0
 13 14  1  0
 14 15  1  0
 14 16  1  0
 14 39  1  1
 15 35  1  1
 15 36  1  0
 15 54  1  0
 16 17  1  0
 16 40  1  6
 16 41  1  0
 17 18  1  0
 17 23  2  0
 18 19  2  0
 18 42  1  0
 19 20  1  0
 19 21  1  0
 21 22  2  0
 21 43  1  0
 22 23  1  0
 22 44  1  0
 23 45  1  0
 24 25  2  0
 24 46  1  0
 25 26  1  0
 26 27  1  0
 26 31  2  0
 27 28  2  0
 28 29  1  0
 28 47  1  0
 29 30  2  0
 29 48  1  0
 30 31  1  0
 30 49  1  0
 31 50  1  0
 32 33  1  0
 32 51  1  0
 33 34  2  0
 33 52  1  0
 34 53  1  0
M  CHG  1  15   1
M  END
>  <s_epik_cmdline>  (58) 
J2VwaWtfcHl0aG9uJywgJy1waCcsICc3LjAwMDAwMCcsICctcGh0JywgJzIuMDAwMDAwJywgJy1tcycsICcxNicsICctdG4nLCAnOCcsICctbWEnLCAnMjAwJywgJy1pbWFlJywgJzxpbmZpbGUubWFlPicsICctb21hZScsICc8b3V0ZmlsZS5tYWU+Jw==

>  <s_epik_input>  (58) 
RmMxW2NIXWMoW2NIXVtjSF1bY0hdMSlDI0NDKD1PKVtOSF1jKGMoYzIzKVtjSF1bY0hdW2NIXVtjSF0zKWMoW2NIXW4yKUMjQ1tDQEhdKFtOSDJdKVtDSDJdYzRbY0hdYyhGKVtjSF1bY0hdW2NIXTQ=

>  <s_i_glide_gridfile>  (58) 
ATP-Grid

>  <s_lp_Force_Field>  (58) 
OPLS_2005

>  <s_lp_Variant>  (58) 
rxn503b____EMOL32279559____EMOL13728749____EMOL313110234-3

>  <s_lp_label>  (58) 
2654_sdstereoexpander_1_neutralizer_1_epik_2_stereoizer_1

>  <s_m_source_file>  (58) 
ATP-VSW-LIGPREP-001-in.maegz

>  <s_sd_BIOSOLVEIT.INFINISEE\_QUERY\_NAME>  (58) 
Ref-Lig

>  <s_sd_BIOSOLVEIT.INFINISEE\_QUERY\_SMILES>  (58) 
S(c1nc2c(cc1C[NH2+]Cc3ccc(cc3)C[NH+](C)C)cccc2)Cc4ccccc4

>  <s_sd_BIOSOLVEIT.INFINISEE\_REACTION\_NAME>  (58) 
rxn503b

>  <s_sd_BIOSOLVEIT.INFINISEE\_REAGENT1\_NAME>  (58) 
EMOL32279559

>  <s_sd_BIOSOLVEIT.INFINISEE\_REAGENT1\_SMILES>  (58) 
Fc1cc(C#CC(=O)O)ccc1

>  <s_sd_BIOSOLVEIT.INFINISEE\_REAGENT2\_NAME>  (58) 
EMOL13728749

>  <s_sd_BIOSOLVEIT.INFINISEE\_REAGENT2\_SMILES>  (58) 
Brc1c(N)c2c(nc1)cccc2

>  <s_sd_BIOSOLVEIT.INFINISEE\_REAGENT3\_NAME>  (58) 
EMOL313110234

>  <s_sd_BIOSOLVEIT.INFINISEE\_REAGENT3\_SMILES>  (58) 
Fc1cc(ccc1)CC(N)C#C

>  <s_sd_BIOSOLVEIT.INFINISEE\_SPACE>  (58) 
eXplore_7tr_2022-12

>  <s_vsw_compound_code>  (58) 
84897

>  <s_vsw_variant>  (58) 
84897-3

>  <r_epik_Charging_Adjusted_Penalty>  (58) 
1.22591159016581

>  <r_epik_Ionization_Penalty>  (58) 
0.61350000000000005

>  <r_epik_Ionization_Penalty_Charging>  (58) 
0.61299999999999999

>  <r_epik_Ionization_Penalty_Neutral>  (58) 
0.00059999999999999995

>  <r_epik_State_Penalty>  (58) 
0.61299999999999999

>  <r_i_docking_score>  (58) 
-6.32225078624524

>  <r_i_glide_ecoul>  (58) 
-16.886165618896499

>  <r_i_glide_eff_state_penalty>  (58) 
0.61299999999999999

>  <r_i_glide_einternal>  (58) 
5.7785072326660201

>  <r_i_glide_emodel>  (58) 
-74.573917103221106

>  <r_i_glide_energy>  (58) 
-47.807611465454102

>  <r_i_glide_erotb>  (58) 
0.58804509089820101

>  <r_i_glide_esite>  (58) 
-0.106434340225723

>  <r_i_glide_evdw>  (58) 
-30.921445846557599

>  <r_i_glide_gscore>  (58) 
-6.9352507862452404

>  <r_i_glide_hbond>  (58) 
-0.38375486728048502

>  <r_i_glide_ligand_efficiency>  (58) 
-0.18594855253662501

>  <r_i_glide_ligand_efficiency_ln>  (58) 
-1.3967625318094501

>  <r_i_glide_ligand_efficiency_sa>  (58) 
-0.60240112452002104

>  <r_i_glide_lipo>  (58) 
-1.996579390575

>  <r_i_glide_metal>  (58) 
-0

>  <r_i_glide_rewards>  (58) 
-0.95753014389987601

>  <r_lp_Energy>  (58) 
25.858775999999999

>  <r_qp_ACxDN^.5/SA>  (58) 
0.0109747

>  <r_qp_CIQPlogS>  (58) 
-6.649

>  <r_qp_EA(eV)>  (58) 
1.2969999999999999

>  <r_qp_FISA>  (58) 
117.901

>  <r_qp_FOSA>  (58) 
52.253999999999998

>  <r_qp_IP(eV)>  (58) 
8.9459999999999997

>  <r_qp_Jm>  (58) 
0.0021891366506051799

>  <r_qp_PISA>  (58) 
471.50999999999999

>  <r_qp_PSA>  (58) 
77.251000000000005

>  <r_qp_PercentHumanOralAbsorption>  (58) 
96.518000000000001

>  <r_qp_QPPCaco>  (58) 
188.25299999999999

>  <r_qp_QPPMDCK>  (58) 
213.678

>  <r_qp_QPlogBB>  (58) 
-0.495

>  <r_qp_QPlogHERG>  (58) 
-7.2699999999999996

>  <r_qp_QPlogKhsa>  (58) 
0.89700000000000002

>  <r_qp_QPlogKp>  (58) 
-3.3260000000000001

>  <r_qp_QPlogPC16>  (58) 
15.068

>  <r_qp_QPlogPo/w>  (58) 
4.9290000000000003

>  <r_qp_QPlogPoct>  (58) 
23.760000000000002

>  <r_qp_QPlogPw>  (58) 
12.523

>  <r_qp_QPlogS>  (58) 
-4.9880000000000004

>  <r_qp_QPpolrz>  (58) 
46.994

>  <r_qp_SASA>  (58) 
710.202

>  <r_qp_SAamideO>  (58) 
0

>  <r_qp_SAfluorine>  (58) 
68.537000000000006

>  <r_qp_WPSA>  (58) 
68.537000000000006

>  <r_qp_accptHB>  (58) 
4.5

>  <r_qp_dip^2/V>  (58) 
0.053341600000000003

>  <r_qp_dipole>  (58) 
8.4670000000000005

>  <r_qp_donorHB>  (58) 
3

>  <r_qp_glob>  (58) 
0.82925300000000002

>  <r_qp_mol_MW>  (58) 
451.47399999999999

>  <r_qp_volume>  (58) 
1343.865

>  <r_sd_BIOSOLVEIT.INFINISEE\_FTREES\_SIMILARITY>  (58) 
0.91000000000000003

>  <r_sd_BIOSOLVEIT.LOGP>  (58) 
3.7079

>  <r_sd_BIOSOLVEIT.MOLECULAR\_WEIGHT>  (58) 
452.48200000000003

>  <r_sd_BIOSOLVEIT.TPSA>  (58) 
69.629999999999995

>  <i_epik_Tot_Q>  (58) 
1

>  <i_epik_Tot_abs_Q>  (58) 
1

>  <i_f3d_flags>  (58) 
0

>  <i_i_glide_confnum>  (58) 
3

>  <i_i_glide_lignum>  (58) 
1154

>  <i_i_glide_posenum>  (58) 
1

>  <i_i_glide_rotatable_bonds>  (58) 
8

>  <i_lp_mmshare_version>  (58) 
65135

>  <i_m_ct_format>  (58) 
2

>  <i_m_source_file_index>  (58) 
2654

>  <i_qp_#NandO>  (58) 
4

>  <i_qp_#acid>  (58) 
0

>  <i_qp_#amide>  (58) 
0

>  <i_qp_#amidine>  (58) 
0

>  <i_qp_#amine>  (58) 
1

>  <i_qp_#in34>  (58) 
0

>  <i_qp_#in56>  (58) 
22

>  <i_qp_#metab>  (58) 
5

>  <i_qp_#nonHatm>  (58) 
34

>  <i_qp_#noncon>  (58) 
0

>  <i_qp_#ringatoms>  (58) 
22

>  <i_qp_#rotor>  (58) 
8

>  <i_qp_#rtvFG>  (58) 
0

>  <i_qp_#stars>  (58) 
1

>  <i_qp_CNS>  (58) 
0

>  <i_qp_HumanOralAbsorption>  (58) 
3

>  <i_qp_RuleOfFive>  (58) 
0

>  <i_qp_RuleOfThree>  (58) 
0

>  <i_sd_BIOSOLVEIT.INFINISEE\_RESULT\_RANK>  (58) 
46944

>  <i_sd_version>  (58) 
0

>  <b_lp_Chiralities_Consistent>  (58) 
1

>  <b_sd_chiral_flag>  (58) 
0

>  <acquisition_id>  (58) 
ATP-ACQ-0058

>  <canonical_id>  (58) 
ATP-HTVS-3B3954EE8C13

>  <compound_code>  (58) 
84897

>  <title>  (58) 
rxn503b____EMOL32279559____EMOL13728749____EMOL313110234

>  <variant>  (58) 
84897-3

>  <selection_arm>  (58) 
exploitation

>  <priority>  (58) 
P1

>  <wave>  (58) 
2

>  <source_file>  (58) 
运行/运行/ATP-VSW/ATP-VSW-DOCK_HTVS_1-001_lib/ATP-VSW-DOCK_HTVS_1-001_lib

>  <canonical_smiles>  (58) 
[NH3+][C@@H](C#Cc1cnc2ccccc2c1NC(=O)C#Cc1cccc(F)c1)Cc1cccc(F)c1

$$$$
ATP-ACQ-0059
     RDKit          3D

 66 69  0  0  0  0  0  0  0  0999 V2000
  201.1502  186.6481  159.8667 Cl  0  0  0  0  0  0  0  0  0  0  0  0
  201.5908  184.9954  160.1637 C   0  0  0  0  0  0  0  0  0  0  0  0
  202.5555  184.6821  161.1570 C   0  0  0  0  0  0  0  0  0  0  0  0
  203.1484  185.7126  162.0028 C   0  0  0  0  0  0  0  0  0  0  0  0
  203.6154  186.5293  162.6745 N   0  0  0  0  0  0  0  0  0  0  0  0
  202.9713  183.3463  161.3411 C   0  0  0  0  0  0  0  0  0  0  0  0
  202.4393  182.3206  160.5381 C   0  0  0  0  0  0  0  0  0  0  0  0
  201.4839  182.6321  159.5542 C   0  0  0  0  0  0  0  0  0  0  0  0
  201.0417  183.9574  159.3666 C   0  0  0  0  0  0  0  0  0  0  0  0
  200.0523  184.2271  158.2705 C   0  0  0  0  0  0  0  0  0  0  0  0
  200.2131  183.8689  157.1039 O   0  0  0  0  0  0  0  0  0  0  0  0
  198.7347  185.0097  158.5632 N   0  0  0  0  0  0  0  0  0  0  0  0
  197.5358  184.4841  158.6133 C   0  0  0  0  0  0  0  0  0  0  0  0
  197.0546  183.2942  157.9534 C   0  0  0  0  0  0  0  0  0  0  0  0
  197.8646  182.5580  157.1028 N   0  0  0  0  0  0  0  0  0  0  0  0
  197.6081  181.2646  156.4907 C   0  0  1  0  0  0  0  0  0  0  0  0
  198.8393  180.7579  155.7715 C   0  0  0  0  0  0  0  0  0  0  0  0
  199.4493  179.5551  156.1748 C   0  0  0  0  0  0  0  0  0  0  0  0
  200.6194  179.0985  155.5306 C   0  0  0  0  0  0  0  0  0  0  0  0
  201.1918  179.8701  154.4962 C   0  0  0  0  0  0  0  0  0  0  0  0
  200.5689  181.0584  154.0763 C   0  0  0  0  0  0  0  0  0  0  0  0
  199.3980  181.5071  154.7164 C   0  0  0  0  0  0  0  0  0  0  0  0
  201.2655  177.7877  155.9533 C   0  0  1  0  0  0  0  0  0  0  0  0
  200.8282  176.6310  155.1198 N   0  0  1  0  0  0  0  0  0  0  0  0
  201.2183  176.7400  153.6812 C   0  0  1  0  0  0  0  0  0  0  0  0
  200.5334  175.7014  152.7872 C   0  0  2  0  0  0  0  0  0  0  0  0
  201.1958  175.3267  155.7422 C   0  0  1  0  0  0  0  0  0  0  0  0
  202.6997  175.0041  155.6623 C   0  0  2  0  0  0  0  0  0  0  0  0
  195.7715  182.9027  158.1534 C   0  0  0  0  0  0  0  0  0  0  0  0
  194.8688  183.5717  158.9539 N   0  0  0  0  0  0  0  0  0  0  0  0
  195.2323  184.7519  159.5973 C   0  0  0  0  0  0  0  0  0  0  0  0
  196.5557  185.2491  159.4552 C   0  0  0  0  0  0  0  0  0  0  0  0
  196.8989  186.4525  160.1273 C   0  0  0  0  0  0  0  0  0  0  0  0
  195.9486  187.1365  160.9123 C   0  0  0  0  0  0  0  0  0  0  0  0
  194.6408  186.6340  161.0372 C   0  0  0  0  0  0  0  0  0  0  0  0
  194.2862  185.4425  160.3818 C   0  0  0  0  0  0  0  0  0  0  0  0
  203.7038  183.1012  162.0983 H   0  0  0  0  0  0  0  0  0  0  0  0
  202.7659  181.2963  160.6753 H   0  0  0  0  0  0  0  0  0  0  0  0
  201.0964  181.8384  158.9308 H   0  0  0  0  0  0  0  0  0  0  0  0
  198.7781  182.9350  156.8869 H   0  0  0  0  0  0  0  0  0  0  0  0
  197.3136  180.5573  157.2689 H   0  0  0  0  0  0  0  0  0  0  0  0
  196.7725  181.3229  155.7855 H   0  0  0  0  0  0  0  0  0  0  0  0
  199.0174  178.9814  156.9831 H   0  0  0  0  0  0  0  0  0  0  0  0
  202.0959  179.5421  154.0021 H   0  0  0  0  0  0  0  0  0  0  0  0
  200.9914  181.6221  153.2553 H   0  0  0  0  0  0  0  0  0  0  0  0
  198.9335  182.4286  154.3931 H   0  0  0  0  0  0  0  0  0  0  0  0
  202.3502  177.8942  155.9262 H   0  0  0  0  0  0  0  0  0  0  0  0
  200.9980  177.6013  156.9976 H   0  0  0  0  0  0  0  0  0  0  0  0
  200.9164  177.7037  153.2698 H   0  0  0  0  0  0  0  0  0  0  0  0
  202.3035  176.6895  153.5767 H   0  0  0  0  0  0  0  0  0  0  0  0
  200.8246  175.8586  151.7490 H   0  0  0  0  0  0  0  0  0  0  0  0
  199.4511  175.8177  152.8388 H   0  0  0  0  0  0  0  0  0  0  0  0
  200.7875  174.6736  153.0446 H   0  0  0  0  0  0  0  0  0  0  0  0
  200.8867  175.3345  156.7903 H   0  0  0  0  0  0  0  0  0  0  0  0
  200.6278  174.5167  155.2846 H   0  0  0  0  0  0  0  0  0  0  0  0
  202.9293  174.0633  156.1646 H   0  0  0  0  0  0  0  0  0  0  0  0
  203.2928  175.7822  156.1362 H   0  0  0  0  0  0  0  0  0  0  0  0
  203.0486  174.9015  154.6364 H   0  0  0  0  0  0  0  0  0  0  0  0
  195.3384  182.0300  157.6806 H   0  0  0  0  0  0  0  0  0  0  0  0
  197.8859  186.8847  160.0758 H   0  0  0  0  0  0  0  0  0  0  0  0
  196.2251  188.0530  161.4190 H   0  0  0  0  0  0  0  0  0  0  0  0
  193.9088  187.1681  161.6294 H   0  0  0  0  0  0  0  0  0  0  0  0
  193.2764  185.0674  160.4674 H   0  0  0  0  0  0  0  0  0  0  0  0
  199.8170  176.6701  155.1484 H   0  0  0  0  0  0  0  0  0  0  0  0
  193.9122  183.2397  159.0017 H   0  0  0  0  0  0  0  0  0  0  0  0
  198.8875  185.9189  158.9810 H   0  0  0  0  0  0  0  0  0  0  0  0
  1  2  1  0
  2  3  2  0
  2  9  1  0
  3  4  1  0
  3  6  1  0
  4  5  3  0
  6  7  2  0
  6 37  1  0
  7  8  1  0
  7 38  1  0
  8  9  2  0
  8 39  1  0
  9 10  1  0
 10 11  2  0
 10 12  1  0
 12 13  2  0
 12 66  1  0
 13 14  1  0
 13 32  1  0
 14 15  1  0
 14 29  2  0
 15 16  1  0
 15 40  1  0
 16 17  1  0
 16 41  1  1
 16 42  1  0
 17 18  2  0
 17 22  1  0
 18 19  1  0
 18 43  1  0
 19 20  2  0
 19 23  1  0
 20 21  1  0
 20 44  1  0
 21 22  2  0
 21 45  1  0
 22 46  1  0
 23 24  1  0
 23 47  1  1
 23 48  1  0
 24 25  1  0
 24 27  1  0
 24 64  1  6
 25 26  1  0
 25 49  1  6
 25 50  1  0
 26 51  1  6
 26 52  1  0
 26 53  1  0
 27 28  1  0
 27 54  1  1
 27 55  1  0
 28 56  1  1
 28 57  1  0
 28 58  1  0
 29 30  1  0
 29 59  1  0
 30 31  1  0
 30 65  1  0
 31 32  1  0
 31 36  2  0
 32 33  2  0
 33 34  1  0
 33 60  1  0
 34 35  2  0
 34 61  1  0
 35 36  1  0
 35 62  1  0
 36 63  1  0
M  CHG  2  12   1  24   1
M  END
>  <s_epik_Chemistry_Notes>  (59) 
This compound has an imine and may undergo hydrolysis.

>  <s_epik_cmdline>  (59) 
J2VwaWtfcHl0aG9uJywgJy1waCcsICc3LjAwMDAwMCcsICctcGh0JywgJzIuMDAwMDAwJywgJy1tcycsICcxNicsICctdG4nLCAnOCcsICctbWEnLCAnMjAwJywgJy1pbWFlJywgJzxpbmZpbGUubWFlPicsICctb21hZScsICc8b3V0ZmlsZS5tYWU+Jw==

>  <s_epik_input>  (59) 
Q2xjMWMoQyNOKVtjSF1bY0hdW2NIXWMxQyg9TylbTkhdYyhjKGMyMylbY0hdW2NIXVtjSF1bY0hdMyljKFtjSF1uMilbTkhdW0NIMl1jNFtjSF1jKFtjSF1bY0hdW2NIXTQpW0NIMl1OKFtDSDJdW0NIM10pW0NIMl1bQ0gzXQ==

>  <s_i_glide_gridfile>  (59) 
ATP-Grid

>  <s_lp_Force_Field>  (59) 
OPLS_2005

>  <s_lp_Variant>  (59) 
rxn502b____EMOL49863568____EMOL13728749____EMOL44153840-2

>  <s_lp_label>  (59) 
2625_sdstereoexpander_1_neutralizer_1_epik_2_stereoizer_1

>  <s_m_source_file>  (59) 
ATP-VSW-LIGPREP-002-in.maegz

>  <s_sd_BIOSOLVEIT.INFINISEE\_QUERY\_NAME>  (59) 
Ref-Lig

>  <s_sd_BIOSOLVEIT.INFINISEE\_QUERY\_SMILES>  (59) 
S(c1nc2c(cc1C[NH2+]Cc3ccc(cc3)C[NH+](C)C)cccc2)Cc4ccccc4

>  <s_sd_BIOSOLVEIT.INFINISEE\_REACTION\_NAME>  (59) 
rxn502b

>  <s_sd_BIOSOLVEIT.INFINISEE\_REAGENT1\_NAME>  (59) 
EMOL49863568

>  <s_sd_BIOSOLVEIT.INFINISEE\_REAGENT1\_SMILES>  (59) 
Clc1c(C#N)cccc1C(=O)O

>  <s_sd_BIOSOLVEIT.INFINISEE\_REAGENT2\_NAME>  (59) 
EMOL13728749

>  <s_sd_BIOSOLVEIT.INFINISEE\_REAGENT2\_SMILES>  (59) 
Brc1c(N)c2c(nc1)cccc2

>  <s_sd_BIOSOLVEIT.INFINISEE\_REAGENT3\_NAME>  (59) 
EMOL44153840

>  <s_sd_BIOSOLVEIT.INFINISEE\_REAGENT3\_SMILES>  (59) 
N(Cc1cc(ccc1)CN)(CC)CC

>  <s_sd_BIOSOLVEIT.INFINISEE\_SPACE>  (59) 
eXplore_7tr_2022-12

>  <s_vsw_compound_code>  (59) 
83970

>  <s_vsw_variant>  (59) 
83970-2

>  <r_epik_Charging_Adjusted_Penalty>  (59) 
1.0856167242753201

>  <r_epik_Ionization_Penalty>  (59) 
0.27329999999999999

>  <r_epik_Ionization_Penalty_Charging>  (59) 
0.017999999999999999

>  <r_epik_Ionization_Penalty_Neutral>  (59) 
0.25530000000000003

>  <r_epik_State_Penalty>  (59) 
1.0677000000000001

>  <r_i_docking_score>  (59) 
-2.7746790877587499

>  <r_i_glide_ecoul>  (59) 
-7.6239519119262704

>  <r_i_glide_eff_state_penalty>  (59) 
1.0677000000000001

>  <r_i_glide_einternal>  (59) 
4.9597883224487296

>  <r_i_glide_emodel>  (59) 
-62.154168239811199

>  <r_i_glide_energy>  (59) 
-48.141102790832498

>  <r_i_glide_erotb>  (59) 
0.57159519599847097

>  <r_i_glide_esite>  (59) 
-0.023483389108614899

>  <r_i_glide_evdw>  (59) 
-40.5171508789062

>  <r_i_glide_gscore>  (59) 
-3.8423790877587498

>  <r_i_glide_hbond>  (59) 
0

>  <r_i_glide_ligand_efficiency>  (59) 
-0.077074419104409694

>  <r_i_glide_ligand_efficiency_ln>  (59) 
-0.60536001378306903

>  <r_i_glide_ligand_efficiency_sa>  (59) 
-0.25449412432958002

>  <r_i_glide_lipo>  (59) 
-2.3576533214661302

>  <r_i_glide_metal>  (59) 
-0

>  <r_i_glide_rewards>  (59) 
1.1366127575517699

>  <r_lp_Energy>  (59) 
47.775995999999999

>  <r_qp_ACxDN^.5/SA>  (59) 
0.0133942

>  <r_qp_CIQPlogS>  (59) 
-7.3550000000000004

>  <r_qp_EA(eV)>  (59) 
0.88

>  <r_qp_FISA>  (59) 
119.789

>  <r_qp_FOSA>  (59) 
275.55500000000001

>  <r_qp_IP(eV)>  (59) 
7.383

>  <r_qp_Jm>  (59) 
6.0944501435407402e-05

>  <r_qp_PISA>  (59) 
423.81299999999999

>  <r_qp_PSA>  (59) 
81.341999999999999

>  <r_qp_PercentHumanOralAbsorption>  (59) 
95.977999999999994

>  <r_qp_QPPCaco>  (59) 
180.65100000000001

>  <r_qp_QPPMDCK>  (59) 
118.78

>  <r_qp_QPlogBB>  (59) 
-0.96999999999999997

>  <r_qp_QPlogHERG>  (59) 
-7.931

>  <r_qp_QPlogKhsa>  (59) 
0.78800000000000003

>  <r_qp_QPlogKp>  (59) 
-3.2410000000000001

>  <r_qp_QPlogPC16>  (59) 
17.456

>  <r_qp_QPlogPo/w>  (59) 
4.891

>  <r_qp_QPlogPoct>  (59) 
25.423999999999999

>  <r_qp_QPlogPw>  (59) 
13.840999999999999

>  <r_qp_QPlogS>  (59) 
-6.6719999999999997

>  <r_qp_QPpolrz>  (59) 
53.770000000000003

>  <r_qp_SASA>  (59) 
844.67399999999998

>  <r_qp_SAamideO>  (59) 
0

>  <r_qp_SAfluorine>  (59) 
0

>  <r_qp_WPSA>  (59) 
25.516999999999999

>  <r_qp_accptHB>  (59) 
8

>  <r_qp_dip^2/V>  (59) 
0.0104777

>  <r_qp_dipole>  (59) 
4.0590000000000002

>  <r_qp_donorHB>  (59) 
2

>  <r_qp_glob>  (59) 
0.77429590000000004

>  <r_qp_mol_MW>  (59) 
498.02600000000001

>  <r_qp_volume>  (59) 
1572.702

>  <r_sd_BIOSOLVEIT.INFINISEE\_FTREES\_SIMILARITY>  (59) 
0.91100000000000003

>  <r_sd_BIOSOLVEIT.LOGP>  (59) 
5.0489800000000002

>  <r_sd_BIOSOLVEIT.MOLECULAR\_WEIGHT>  (59) 
499.03500000000003

>  <r_sd_BIOSOLVEIT.TPSA>  (59) 
82.25

>  <i_epik_Tot_Q>  (59) 
2

>  <i_epik_Tot_abs_Q>  (59) 
2

>  <i_f3d_flags>  (59) 
0

>  <i_i_glide_confnum>  (59) 
2

>  <i_i_glide_lignum>  (59) 
1219

>  <i_i_glide_posenum>  (59) 
12

>  <i_i_glide_rotatable_bonds>  (59) 
9

>  <i_lp_mmshare_version>  (59) 
65135

>  <i_m_ct_format>  (59) 
2

>  <i_m_source_file_index>  (59) 
2625

>  <i_qp_#NandO>  (59) 
6

>  <i_qp_#acid>  (59) 
0

>  <i_qp_#amide>  (59) 
0

>  <i_qp_#amidine>  (59) 
0

>  <i_qp_#amine>  (59) 
1

>  <i_qp_#in34>  (59) 
0

>  <i_qp_#in56>  (59) 
22

>  <i_qp_#metab>  (59) 
7

>  <i_qp_#nonHatm>  (59) 
36

>  <i_qp_#noncon>  (59) 
0

>  <i_qp_#ringatoms>  (59) 
22

>  <i_qp_#rotor>  (59) 
11

>  <i_qp_#rtvFG>  (59) 
0

>  <i_qp_#stars>  (59) 
2

>  <i_qp_CNS>  (59) 
0

>  <i_qp_HumanOralAbsorption>  (59) 
1

>  <i_qp_RuleOfFive>  (59) 
0

>  <i_qp_RuleOfThree>  (59) 
2

>  <i_sd_BIOSOLVEIT.INFINISEE\_RESULT\_RANK>  (59) 
43863

>  <i_sd_version>  (59) 
0

>  <b_lp_Chiralities_Consistent>  (59) 
1

>  <b_sd_chiral_flag>  (59) 
0

>  <acquisition_id>  (59) 
ATP-ACQ-0059

>  <canonical_id>  (59) 
ATP-HTVS-4AC739BE8539

>  <compound_code>  (59) 
83970

>  <title>  (59) 
rxn502b____EMOL49863568____EMOL13728749____EMOL44153840

>  <variant>  (59) 
83970-2

>  <selection_arm>  (59) 
descriptor_diversity

>  <priority>  (59) 
P1

>  <wave>  (59) 
2

>  <source_file>  (59) 
运行/运行/ATP-VSW/ATP-VSW-DOCK_HTVS_1-002_lib.maegz

>  <canonical_smiles>  (59) 
CC[NH+](CC)Cc1cccc(CNc2c[nH]c3ccccc3/c2=[NH+]/C(=O)c2cccc(C#N)c2Cl)c1

$$$$
ATP-ACQ-0060
     RDKit          3D

 63 66  0  0  0  0  0  0  0  0999 V2000
  199.8213  182.1494  155.3727 N   0  0  0  0  0  0  0  0  0  0  0  0
  201.1912  181.9710  155.3312 C   0  0  0  0  0  0  0  0  0  0  0  0
  201.5593  180.7815  156.0063 C   0  0  0  0  0  0  0  0  0  0  0  0
  200.3580  180.2573  156.4974 N   0  0  0  0  0  0  0  0  0  0  0  0
  199.3886  181.1041  156.0911 C   0  0  0  0  0  0  0  0  0  0  0  0
  197.9186  180.9000  156.3810 C   0  0  1  0  0  0  0  0  0  0  0  0
  197.3792  181.7554  157.4475 N   0  0  0  0  0  0  0  0  0  0  0  0
  197.4843  183.2171  157.2887 C   0  0  2  0  0  0  0  0  0  0  0  0
  196.6273  183.9557  158.3022 C   0  0  0  0  0  0  0  0  0  0  0  0
  197.1420  185.0894  158.9736 C   0  0  0  0  0  0  0  0  0  0  0  0
  196.3391  185.7988  159.8898 C   0  0  0  0  0  0  0  0  0  0  0  0
  195.0201  185.3752  160.1404 C   0  0  0  0  0  0  0  0  0  0  0  0
  194.4973  184.2531  159.4661 C   0  0  0  0  0  0  0  0  0  0  0  0
  195.2987  183.5501  158.5457 C   0  0  0  0  0  0  0  0  0  0  0  0
  197.1270  183.6690  155.8487 C   0  0  1  0  0  0  0  0  0  0  0  0
  197.5208  185.0195  155.4328 N   0  0  0  0  0  0  0  0  0  0  0  0
  198.9661  185.2647  155.5591 C   0  0  1  0  0  0  0  0  0  0  0  0
  199.4094  186.7106  155.3391 C   0  0  2  0  0  0  0  0  0  0  0  0
  197.0364  185.2470  154.0653 C   0  0  1  0  0  0  0  0  0  0  0  0
  197.5665  184.3081  152.9603 C   0  0  2  0  0  0  0  0  0  0  0  0
  200.2032  179.0259  157.2460 C   0  0  1  0  0  0  0  0  0  0  0  0
  200.4995  177.8166  156.3757 C   0  0  0  0  0  0  0  0  0  0  0  0
  201.2218  176.7431  156.9285 C   0  0  0  0  0  0  0  0  0  0  0  0
  201.5503  175.6210  156.1441 C   0  0  0  0  0  0  0  0  0  0  0  0
  201.1481  175.5642  154.7953 C   0  0  0  0  0  0  0  0  0  0  0  0
  200.4126  176.6284  154.2365 C   0  0  0  0  0  0  0  0  0  0  0  0
  200.0862  177.7514  155.0250 C   0  0  0  0  0  0  0  0  0  0  0  0
  202.9003  180.3634  156.0516 C   0  0  0  0  0  0  0  0  0  0  0  0
  203.8985  181.1447  155.4236 C   0  0  0  0  0  0  0  0  0  0  0  0
  203.5506  182.3454  154.7760 C   0  0  0  0  0  0  0  0  0  0  0  0
  202.2031  182.7628  154.7332 C   0  0  0  0  0  0  0  0  0  0  0  0
  196.4503  181.4585  157.7228 H   0  0  0  0  0  0  0  0  0  0  0  0
  197.3662  181.0442  155.4594 H   0  0  0  0  0  0  0  0  0  0  0  0
  197.7154  179.8507  156.6274 H   0  0  0  0  0  0  0  0  0  0  0  0
  198.5155  183.4627  157.5174 H   0  0  0  0  0  0  0  0  0  0  0  0
  198.1441  185.4345  158.7690 H   0  0  0  0  0  0  0  0  0  0  0  0
  196.7327  186.6717  160.3942 H   0  0  0  0  0  0  0  0  0  0  0  0
  194.4002  185.9199  160.8359 H   0  0  0  0  0  0  0  0  0  0  0  0
  193.4774  183.9415  159.6373 H   0  0  0  0  0  0  0  0  0  0  0  0
  194.8744  182.7137  158.0081 H   0  0  0  0  0  0  0  0  0  0  0  0
  197.5755  183.0049  155.1311 H   0  0  0  0  0  0  0  0  0  0  0  0
  196.0525  183.5422  155.7034 H   0  0  0  0  0  0  0  0  0  0  0  0
  199.3157  185.0105  156.5557 H   0  0  0  0  0  0  0  0  0  0  0  0
  199.5292  184.6354  154.8773 H   0  0  0  0  0  0  0  0  0  0  0  0
  200.4852  186.8001  155.5072 H   0  0  0  0  0  0  0  0  0  0  0  0
  198.8994  187.3710  156.0409 H   0  0  0  0  0  0  0  0  0  0  0  0
  199.2108  187.0482  154.3230 H   0  0  0  0  0  0  0  0  0  0  0  0
  195.9532  185.1979  154.0598 H   0  0  0  0  0  0  0  0  0  0  0  0
  197.2688  186.2618  153.7674 H   0  0  0  0  0  0  0  0  0  0  0  0
  197.2870  184.6773  151.9757 H   0  0  0  0  0  0  0  0  0  0  0  0
  197.1494  183.3056  153.0412 H   0  0  0  0  0  0  0  0  0  0  0  0
  198.6523  184.2066  152.9590 H   0  0  0  0  0  0  0  0  0  0  0  0
  200.8783  179.0642  158.1017 H   0  0  0  0  0  0  0  0  0  0  0  0
  199.1895  178.9411  157.6461 H   0  0  0  0  0  0  0  0  0  0  0  0
  201.5366  176.8001  157.9589 H   0  0  0  0  0  0  0  0  0  0  0  0
  202.1116  174.8078  156.5805 H   0  0  0  0  0  0  0  0  0  0  0  0
  201.3927  174.6984  154.1969 H   0  0  0  0  0  0  0  0  0  0  0  0
  200.0907  176.5804  153.2052 H   0  0  0  0  0  0  0  0  0  0  0  0
  199.5225  178.5580  154.5801 H   0  0  0  0  0  0  0  0  0  0  0  0
  203.1590  179.4413  156.5436 H   0  0  0  0  0  0  0  0  0  0  0  0
  204.9295  180.8079  155.4417 H   0  0  0  0  0  0  0  0  0  0  0  0
  204.3169  182.9408  154.2979 H   0  0  0  0  0  0  0  0  0  0  0  0
  201.9368  183.6806  154.2311 H   0  0  0  0  0  0  0  0  0  0  0  0
  1  2  1  0
  1  5  2  0
  2  3  1  0
  2 31  2  0
  3  4  1  0
  3 28  2  0
  4  5  1  0
  4 21  1  0
  5  6  1  0
  6  7  1  0
  6 33  1  6
  6 34  1  0
  7  8  1  0
  7 32  1  0
  8  9  1  0
  8 15  1  0
  8 35  1  1
  9 10  2  0
  9 14  1  0
 10 11  1  0
 10 36  1  0
 11 12  2  0
 11 37  1  0
 12 13  1  0
 12 38  1  0
 13 14  2  0
 13 39  1  0
 14 40  1  0
 15 16  1  0
 15 41  1  6
 15 42  1  0
 16 17  1  0
 16 19  1  0
 17 18  1  0
 17 43  1  1
 17 44  1  0
 18 45  1  1
 18 46  1  0
 18 47  1  0
 19 20  1  0
 19 48  1  1
 19 49  1  0
 20 50  1  6
 20 51  1  0
 20 52  1  0
 21 22  1  0
 21 53  1  1
 21 54  1  0
 22 23  2  0
 22 27  1  0
 23 24  1  0
 23 55  1  0
 24 25  2  0
 24 56  1  0
 25 26  1  0
 25 57  1  0
 26 27  2  0
 26 58  1  0
 27 59  1  0
 28 29  1  0
 28 60  1  0
 29 30  2  0
 29 61  1  0
 30 31  1  0
 30 62  1  0
 31 63  1  0
M  END
>  <s_epik_cmdline>  (60) 
J2VwaWtfcHl0aG9uJywgJy1waCcsICc3LjAwMDAwMCcsICctcGh0JywgJzIuMDAwMDAwJywgJy1tcycsICcxNicsICctdG4nLCAnOCcsICctbWEnLCAnMjAwJywgJy1pbWFlJywgJzxpbmZpbGUubWFlPicsICctb21hZScsICc8b3V0ZmlsZS5tYWU+Jw==

>  <s_epik_input>  (60) 
W2NIXTFbY0hdW2NIXVtjSF1bY0hdYzFbQ0gyXW4oYyhjMjMpW2NIXVtjSF1bY0hdW2NIXTMpYyhuMilbQ0gyXVtOSF1bQ0BASF0oW0NIMl1OKFtDSDJdW0NIM10pW0NIMl1bQ0gzXSljNFtjSF1bY0hdW2NIXVtjSF1bY0hdNA==

>  <s_i_glide_gridfile>  (60) 
ATP-Grid

>  <s_lp_Force_Field>  (60) 
OPLS_2005

>  <s_lp_Variant>  (60) 
m_270004beb____23855432____24720860-5

>  <s_lp_label>  (60) 
2014_sdstereoexpander_1_neutralizer_1_epik_3_stereoizer_1

>  <s_m_source_file>  (60) 
ATP-VSW-LIGPREP-001-in.maegz

>  <s_sd_BIOSOLVEIT.INFINISEE\_QUERY\_NAME>  (60) 
Ref-Lig

>  <s_sd_BIOSOLVEIT.INFINISEE\_QUERY\_SMILES>  (60) 
S(c1nc2c(cc1C[NH2+]Cc3ccc(cc3)C[NH+](C)C)cccc2)Cc4ccccc4

>  <s_sd_BIOSOLVEIT.INFINISEE\_REACTION\_NAME>  (60) 
m_270004beb

>  <s_sd_BIOSOLVEIT.INFINISEE\_REAGENT1\_SMILES>  (60) 
[R1*]NC(c1ccccc1)CN(CC)CC

>  <s_sd_BIOSOLVEIT.INFINISEE\_REAGENT2\_SMILES>  (60) 
[R1*]CC1=Nc2c(N1Cc3ccccc3)cccc2

>  <s_sd_BIOSOLVEIT.INFINISEE\_SPACE>  (60) 
REALSpace_44bn_2023-08

>  <s_vsw_compound_code>  (60) 
64417

>  <s_vsw_variant>  (60) 
64417-5

>  <r_epik_Charging_Adjusted_Penalty>  (60) 
1.90981738591005

>  <r_epik_Ionization_Penalty>  (60) 
2.1204000000000001

>  <r_epik_Ionization_Penalty_Charging>  (60) 
0

>  <r_epik_Ionization_Penalty_Neutral>  (60) 
2.1204000000000001

>  <r_epik_State_Penalty>  (60) 
1.9097999999999999

>  <r_i_docking_score>  (60) 
-1.67195748938188

>  <r_i_glide_ecoul>  (60) 
-3.71981644630432

>  <r_i_glide_eff_state_penalty>  (60) 
1.9097999999999999

>  <r_i_glide_einternal>  (60) 
7.7699069976806596

>  <r_i_glide_emodel>  (60) 
-39.037123747113

>  <r_i_glide_energy>  (60) 
-34.667349100112901

>  <r_i_glide_erotb>  (60) 
0.81098666524909202

>  <r_i_glide_esite>  (60) 
-0.030273750895431599

>  <r_i_glide_evdw>  (60) 
-30.947532653808601

>  <r_i_glide_gscore>  (60) 
-3.58175748938188

>  <r_i_glide_hbond>  (60) 
0

>  <r_i_glide_ligand_efficiency>  (60) 
-0.053934112560705898

>  <r_i_glide_ligand_efficiency_ln>  (60) 
-0.37707765319905201

>  <r_i_glide_ligand_efficiency_sa>  (60) 
-0.16942757750816401

>  <r_i_glide_lipo>  (60) 
-1.6610061677358301

>  <r_i_glide_metal>  (60) 
-0

>  <r_i_glide_rewards>  (60) 
-0.596115136363635

>  <r_lp_Energy>  (60) 
35.323326999999999

>  <r_qp_ACxDN^.5/SA>  (60) 
0.0071345000000000002

>  <r_qp_CIQPlogS>  (60) 
-4.7690000000000001

>  <r_qp_EA(eV)>  (60) 
0.20100000000000001

>  <r_qp_FISA>  (60) 
29.681000000000001

>  <r_qp_FOSA>  (60) 
254.804

>  <r_qp_IP(eV)>  (60) 
8.4649999999999999

>  <r_qp_Jm>  (60) 
0.0532453566565389

>  <r_qp_PISA>  (60) 
416.33100000000002

>  <r_qp_PSA>  (60) 
29.603999999999999

>  <r_qp_PercentHumanOralAbsorption>  (60) 
100

>  <r_qp_QPPCaco>  (60) 
322.28500000000003

>  <r_qp_QPPMDCK>  (60) 
178.06299999999999

>  <r_qp_QPlogBB>  (60) 
0.48199999999999998

>  <r_qp_QPlogHERG>  (60) 
-7.4429999999999996

>  <r_qp_QPlogKhsa>  (60) 
0.92900000000000005

>  <r_qp_QPlogKp>  (60) 
-3.7650000000000001

>  <r_qp_QPlogPC16>  (60) 
14.169

>  <r_qp_QPlogPo/w>  (60) 
4.9790000000000001

>  <r_qp_QPlogPoct>  (60) 
19.341000000000001

>  <r_qp_QPlogPw>  (60) 
8.6229999999999993

>  <r_qp_QPlogS>  (60) 
-3.1240000000000001

>  <r_qp_QPpolrz>  (60) 
45.838000000000001

>  <r_qp_SASA>  (60) 
700.81500000000005

>  <r_qp_SAamideO>  (60) 
0

>  <r_qp_SAfluorine>  (60) 
0

>  <r_qp_WPSA>  (60) 
0

>  <r_qp_accptHB>  (60) 
5

>  <r_qp_dip^2/V>  (60) 
0.015170899999999999

>  <r_qp_dipole>  (60) 
4.5430000000000001

>  <r_qp_donorHB>  (60) 
1

>  <r_qp_glob>  (60) 
0.84717089999999995

>  <r_qp_mol_MW>  (60) 
412.577

>  <r_qp_volume>  (60) 
1360.2360000000001

>  <r_sd_BIOSOLVEIT.INFINISEE\_FTREES\_SIMILARITY>  (60) 
0.90200000000000002

>  <r_sd_BIOSOLVEIT.LOGP>  (60) 
2.8140000000000001

>  <r_sd_BIOSOLVEIT.MOLECULAR\_WEIGHT>  (60) 
414.59399999999999

>  <r_sd_BIOSOLVEIT.TPSA>  (60) 
38.869999999999997

>  <i_epik_Tot_Q>  (60) 
0

>  <i_epik_Tot_abs_Q>  (60) 
0

>  <i_f3d_flags>  (60) 
0

>  <i_i_glide_confnum>  (60) 
5

>  <i_i_glide_lignum>  (60) 
617

>  <i_i_glide_posenum>  (60) 
6

>  <i_i_glide_rotatable_bonds>  (60) 
10

>  <i_lp_mmshare_version>  (60) 
65135

>  <i_m_ct_format>  (60) 
2

>  <i_m_source_file_index>  (60) 
2014

>  <i_qp_#NandO>  (60) 
4

>  <i_qp_#acid>  (60) 
0

>  <i_qp_#amide>  (60) 
0

>  <i_qp_#amidine>  (60) 
0

>  <i_qp_#amine>  (60) 
2

>  <i_qp_#in34>  (60) 
0

>  <i_qp_#in56>  (60) 
21

>  <i_qp_#metab>  (60) 
6

>  <i_qp_#nonHatm>  (60) 
31

>  <i_qp_#noncon>  (60) 
0

>  <i_qp_#ringatoms>  (60) 
21

>  <i_qp_#rotor>  (60) 
10

>  <i_qp_#rtvFG>  (60) 
0

>  <i_qp_#stars>  (60) 
0

>  <i_qp_CNS>  (60) 
2

>  <i_qp_HumanOralAbsorption>  (60) 
3

>  <i_qp_RuleOfFive>  (60) 
0

>  <i_qp_RuleOfThree>  (60) 
0

>  <i_sd_BIOSOLVEIT.INFINISEE\_REAGENT1\_NAME>  (60) 
23855432

>  <i_sd_BIOSOLVEIT.INFINISEE\_REAGENT2\_NAME>  (60) 
24720860

>  <i_sd_BIOSOLVEIT.INFINISEE\_RESULT\_RANK>  (60) 
91688

>  <i_sd_version>  (60) 
0

>  <b_lp_Chiralities_Consistent>  (60) 
1

>  <b_sd_chiral_flag>  (60) 
0

>  <acquisition_id>  (60) 
ATP-ACQ-0060

>  <canonical_id>  (60) 
ATP-HTVS-F05D07B9382E

>  <compound_code>  (60) 
64417

>  <title>  (60) 
m_270004beb____23855432____24720860

>  <variant>  (60) 
64417-5

>  <selection_arm>  (60) 
score_calibration

>  <priority>  (60) 
P1

>  <wave>  (60) 
2

>  <source_file>  (60) 
运行/运行/ATP-VSW/ATP-VSW-DOCK_HTVS_1-001_lib/ATP-VSW-DOCK_HTVS_1-001_lib

>  <canonical_smiles>  (60) 
CCN(CC)C[C@H](NCc1nc2ccccc2n1Cc1ccccc1)c1ccccc1

$$$$
